REMARK  8 active torsions:
REMARK  status: ('A' for Active; 'I' for Inactive)
REMARK    1  A    between atoms: C_6  and  C_7 
REMARK    2  A    between atoms: N_10  and  C_11 
REMARK    3  A    between atoms: C_11  and  C_12 
REMARK    4  A    between atoms: C_12  and  C_13 
REMARK    5  A    between atoms: C_13  and  O_14 
REMARK    6  A    between atoms: O_14  and  C_15 
REMARK    7  A    between atoms: C_18  and  C_19 
REMARK    8  A    between atoms: C_19  and  N_20 
ROOT
ATOM      1  C   UNL d   1       7.744   2.542 -13.961  0.00  0.00     0.253 C 
ENDROOT
BRANCH   1   2
ATOM      2  N   UNL d   1       7.325   2.113 -15.299  0.00  0.00     0.137 N 
ATOM      3  C   UNL d   1       6.614   0.836 -15.201  0.00  0.00     0.251 C 
ATOM      4  C   UNL d   1       6.087   0.415 -16.586  0.00  0.00     0.041 C 
ATOM      5  C   UNL d   1       7.226   0.316 -17.605  0.00  0.00     0.047 C 
ATOM      6  C   UNL d   1       8.065   1.600 -17.585  0.00  0.00     0.041 C 
ATOM      7  C   UNL d   1       8.500   1.962 -16.158  0.00  0.00     0.251 C 
BRANCH   5   8
ATOM      8  C   UNL d   1       6.682   0.047 -18.999  0.00  0.00     0.087 A 
ATOM      9  C   UNL d   1       6.787  -1.095 -19.818  0.00  0.00     0.041 A 
ATOM     10  C   UNL d   1       7.420  -2.339 -19.614  0.00  0.00     0.006 A 
ATOM     11  C   UNL d   1       6.104  -0.857 -21.015  0.00  0.00     0.129 A 
ATOM     12  C   UNL d   1       7.349  -3.312 -20.638  0.00  0.00     0.030 A 
ATOM     13  C   UNL d   1       6.655  -3.042 -21.848  0.00  0.00     0.142 A 
ATOM     14  F   UNL d   1       6.605  -3.990 -22.819  0.00  0.00    -0.204 F 
ATOM     15  C   UNL d   1       6.021  -1.798 -22.045  0.00  0.00     0.057 A 
ATOM     16  O   UNL d   1       5.595   0.423 -20.899  0.00  0.00    -0.211 OA
ATOM     17  N   UNL d   1       5.958   0.968 -19.634  0.00  0.00    -0.131 NA
ENDBRANCH   5   8
ENDBRANCH   1   2
BRANCH   1  18
ATOM     18  C   UNL d   1       8.023   4.046 -13.878  0.00  0.00     0.068 C 
BRANCH  18  19
ATOM     19  C   UNL d   1       8.603   4.445 -12.516  0.00  0.00     0.151 C 
BRANCH  19  20
ATOM     20  O   UNL d   1       8.749   5.859 -12.497  0.00  0.00    -0.329 OA
BRANCH  20  21
ATOM     21  C   UNL d   1       9.276   6.442 -11.362  0.00  0.00     0.121 A 
ATOM     22  C   UNL d   1       9.439   7.843 -11.366  0.00  0.00     0.162 A 
ATOM     23  C   UNL d   1       9.981   8.514 -10.258  0.00  0.00     0.029 A 
ATOM     24  F   UNL d   1       9.050   8.568 -12.441  0.00  0.00    -0.202 F 
ATOM     25  C   UNL d   1      10.388   7.789  -9.132  0.00  0.00     0.013 A 
ATOM     26  C   UNL d   1      10.240   6.388  -9.110  0.00  0.00    -0.000 A 
ATOM     27  C   UNL d   1       9.662   5.721 -10.204  0.00  0.00     0.026 A 
BRANCH  25  28
ATOM     28  C   UNL d   1      11.005   8.539  -7.973  0.00  0.00     0.277 C 
BRANCH  28  29
ATOM     29  N   UNL d   1      10.132   8.692  -6.814  0.00  0.00     0.141 N 
ATOM     30  C   UNL d   1       9.871   7.434  -6.100  0.00  0.00     0.251 C 
ATOM     31  C   UNL d   1      11.169   6.855  -5.510  0.00  0.00     0.035 C 
ATOM     32  C   UNL d   1      11.867   7.884  -4.608  0.00  0.00     0.004 C 
ATOM     33  C   UNL d   1      12.014   9.245  -5.308  0.00  0.00     0.035 C 
ATOM     34  C   UNL d   1      10.664   9.699  -5.888  0.00  0.00     0.251 C 
ENDBRANCH  28  29
ENDBRANCH  25  28
ENDBRANCH  20  21
ENDBRANCH  19  20
ENDBRANCH  18  19
ENDBRANCH   1  18
TORSDOF 8
