REMARK  8 active torsions:
REMARK  status: ('A' for Active; 'I' for Inactive)
REMARK       I    between atoms: C_2  and  N_3 
REMARK    1  A    between atoms: C_2  and  C_21 
REMARK    2  A    between atoms: N_3  and  C_4 
REMARK    3  A    between atoms: C_4  and  C_5 
REMARK    4  A    between atoms: C_5  and  C_6 
REMARK    5  A    between atoms: C_6  and  C_7 
REMARK    6  A    between atoms: C_7  and  N_8 
REMARK    7  A    between atoms: N_11  and  C_12 
REMARK    8  A    between atoms: C_24  and  C_25 
ROOT
ATOM      1  C   UNL d   1       9.643   4.070 -12.794  0.00  0.00     0.029 C 
ENDROOT
BRANCH   1   2
ATOM      2  C   UNL d   1       8.974   5.420 -12.482  0.00  0.00     0.129 C 
BRANCH   2   3
ATOM      3  N   UNL d   1       9.341   5.900 -11.155  0.00  0.00    -0.234 NA
ATOM      4  C   UNL d   1       9.581   7.180 -10.832  0.00  0.00     0.275 C 
ATOM      5  O   UNL d   1       9.462   8.116 -11.629  0.00  0.00    -0.266 OA
BRANCH   4   6
ATOM      6  C   UNL d   1      10.072   7.402  -9.428  0.00  0.00     0.058 A 
ATOM      7  C   UNL d   1       9.497   6.693  -8.346  0.00  0.00     0.005 A 
ATOM      8  C   UNL d   1       9.935   6.923  -7.028  0.00  0.00     0.000 A 
ATOM      9  C   UNL d   1      10.951   7.865  -6.760  0.00  0.00     0.001 A 
ATOM     10  C   UNL d   1      11.520   8.578  -7.836  0.00  0.00     0.000 A 
ATOM     11  C   UNL d   1      11.078   8.356  -9.157  0.00  0.00     0.005 A 
BRANCH   9  12
ATOM     12  C   UNL d   1      11.399   8.109  -5.386  0.00  0.00     0.007 A 
ATOM     13  C   UNL d   1      11.797   9.306  -4.843  0.00  0.00     0.035 A 
ATOM     14  S   UNL d   1      12.260   9.156  -3.170  0.00  0.00    -0.086 SA
ATOM     15  C   UNL d   1      11.902   7.454  -3.191  0.00  0.00     0.035 A 
ATOM     16  C   UNL d   1      11.462   7.049  -4.426  0.00  0.00     0.007 A 
ENDBRANCH   9  12
ENDBRANCH   4   6
ENDBRANCH   2   3
ENDBRANCH   1   2
BRANCH   1  17
ATOM     17  C   UNL d   1       9.278   3.552 -14.191  0.00  0.00     0.037 C 
BRANCH  17  18
ATOM     18  C   UNL d   1       9.935   2.185 -14.497  0.00  0.00     0.251 C 
BRANCH  18  19
ATOM     19  N   UNL d   1      10.072   1.951 -15.932  0.00  0.00     0.141 N 
ATOM     20  C   UNL d   1      11.171   2.760 -16.483  0.00  0.00     0.274 C 
ATOM     21  C   UNL d   1      11.301   2.530 -17.998  0.00  0.00     0.137 C 
ATOM     22  N   UNL d   1      11.512   1.113 -18.273  0.00  0.00    -0.344 N 
ATOM     23  C   UNL d   1      10.520   0.235 -17.657  0.00  0.00     0.137 C 
ATOM     24  C   UNL d   1      10.397   0.536 -16.152  0.00  0.00     0.274 C 
BRANCH  22  25
ATOM     25  C   UNL d   1      12.581   0.628 -19.060  0.00  0.00     0.058 A 
ATOM     26  C   UNL d   1      13.776   1.373 -19.239  0.00  0.00     0.044 A 
ATOM     27  C   UNL d   1      14.835   0.859 -20.015  0.00  0.00     0.132 A 
ATOM     28  C   UNL d   1      14.727  -0.407 -20.618  0.00  0.00     0.028 A 
ATOM     29  O   UNL d   1      15.976   1.587 -20.174  0.00  0.00    -0.190 OA
ATOM     30  C   UNL d   1      13.549  -1.152 -20.452  0.00  0.00     0.004 A 
ATOM     31  C   UNL d   1      12.480  -0.630 -19.695  0.00  0.00     0.017 A 
ENDBRANCH  22  25
ENDBRANCH  18  19
ENDBRANCH  17  18
ENDBRANCH   1  17
TORSDOF 8
