REMARK  6 active torsions:
REMARK  status: ('A' for Active; 'I' for Inactive)
REMARK    1  A    between atoms: C_2  and  C_3 
REMARK    2  A    between atoms: C_2  and  C_19 
REMARK    3  A    between atoms: C_3  and  C_4 
REMARK    4  A    between atoms: C_4  and  C_5 
REMARK    5  A    between atoms: C_5  and  N_6 
REMARK    6  A    between atoms: N_10  and  C_11 
ROOT
ATOM      1  N   UNL d   1       8.240   4.886 -10.984  0.00  0.00     0.139 N 
ATOM      2  C   UNL d   1       7.302   5.431 -11.967  0.00  0.00     0.252 C 
ATOM      3  C   UNL d   1       6.899   4.340 -12.966  0.00  0.00     0.059 C 
ATOM      4  C   UNL d   1       7.845   4.237 -14.179  0.00  0.00     0.105 C 
ATOM      5  N   UNL d   1       9.272   4.144 -13.892  0.00  0.00    -0.332 N 
ATOM      6  C   UNL d   1       9.670   3.647 -12.596  0.00  0.00     0.138 C 
ATOM      7  C   UNL d   1       9.579   4.745 -11.544  0.00  0.00     0.274 C 
ENDROOT
BRANCH   1   8
ATOM      8  C   UNL d   1       8.338   5.858  -9.913  0.00  0.00     0.251 C 
BRANCH   8   9
ATOM      9  C   UNL d   1       8.899   5.261  -8.613  0.00  0.00     0.043 C 
BRANCH   9  10
ATOM     10  C   UNL d   1       8.974   6.243  -7.442  0.00  0.00     0.071 C 
BRANCH  10  11
ATOM     11  C   UNL d   1       9.871   7.471  -7.659  0.00  0.00     0.173 C 
ATOM     12  O   UNL d   1       9.890   8.044  -8.754  0.00  0.00    -0.291 OA
BRANCH  11  13
ATOM     13  C   UNL d   1      10.686   7.970  -6.518  0.00  0.00     0.035 A 
ATOM     14  C   UNL d   1      10.948   7.214  -5.341  0.00  0.00     0.005 A 
ATOM     15  C   UNL d   1      11.737   7.766  -4.306  0.00  0.00     0.030 A 
ATOM     16  C   UNL d   1      12.273   9.071  -4.444  0.00  0.00     0.140 A 
ATOM     17  C   UNL d   1      12.040   9.810  -5.616  0.00  0.00     0.030 A 
ATOM     18  F   UNL d   1      13.020   9.588  -3.450  0.00  0.00    -0.204 F 
ATOM     19  C   UNL d   1      11.250   9.262  -6.640  0.00  0.00     0.005 A 
ENDBRANCH  11  13
ENDBRANCH  10  11
ENDBRANCH   9  10
ENDBRANCH   8   9
ENDBRANCH   1   8
BRANCH   5  20
ATOM     20  C   UNL d   1      10.225   4.606 -14.824  0.00  0.00     0.140 A 
ATOM     21  N   UNL d   1      11.517   4.695 -14.403  0.00  0.00    -0.227 NA
ATOM     22  C   UNL d   1      12.451   5.101 -15.286  0.00  0.00     0.101 A 
ATOM     23  C   UNL d   1      12.174   5.488 -16.603  0.00  0.00     0.021 A 
ATOM     24  C   UNL d   1      10.842   5.421 -17.039  0.00  0.00     0.005 A 
ATOM     25  C   UNL d   1       9.861   4.957 -16.143  0.00  0.00     0.037 A 
ENDBRANCH   5  20
TORSDOF 6
