REMARK  4 active torsions:
REMARK  status: ('A' for Active; 'I' for Inactive)
REMARK    1  A    between atoms: C_5  and  C_6 
REMARK    2  A    between atoms: C_10  and  C_11 
REMARK    3  A    between atoms: C_11  and  N_12 
REMARK    4  A    between atoms: C_15  and  C_16 
ROOT
ATOM      1  C   UNL d   1       9.650   6.625  -8.527  0.00  0.00    -0.026 C 
ATOM      2  C   UNL d   1       8.994   5.532  -8.134  0.00  0.00    -0.030 C 
ATOM      3  C   UNL d   1       8.429   4.420  -8.978  0.00  0.00     0.026 C 
ATOM      4  C   UNL d   1       8.182   4.906 -10.404  0.00  0.00     0.007 C 
ATOM      5  C   UNL d   1       9.512   5.585 -10.856  0.00  0.00     0.038 C 
ATOM      6  C   UNL d   1       9.838   6.866 -10.021  0.00  0.00     0.028 C 
ENDROOT
BRANCH   5   7
ATOM      7  C   UNL d   1       9.520   5.955 -12.371  0.00  0.00     0.251 C 
BRANCH   7   8
ATOM      8  N   UNL d   1      10.149   4.909 -13.165  0.00  0.00     0.142 N 
ATOM      9  C   UNL d   1      10.318   5.340 -14.544  0.00  0.00     0.255 C 
ATOM     10  C   UNL d   1      11.026   4.279 -15.393  0.00  0.00     0.061 C 
ATOM     11  C   UNL d   1      10.427   2.889 -15.233  0.00  0.00    -0.022 C 
ATOM     12  C   UNL d   1       9.616   2.684 -14.178  0.00  0.00     0.005 C 
ATOM     13  C   UNL d   1       9.316   3.710 -13.121  0.00  0.00     0.276 C 
BRANCH  11  14
ATOM     14  C   UNL d   1      10.712   1.820 -16.207  0.00  0.00    -0.004 A 
ATOM     15  C   UNL d   1      11.838   1.952 -17.050  0.00  0.00    -0.000 A 
ATOM     16  C   UNL d   1      12.144   0.950 -17.990  0.00  0.00    -0.000 A 
ATOM     17  C   UNL d   1      11.345  -0.203 -18.075  0.00  0.00    -0.000 A 
ATOM     18  C   UNL d   1      10.229  -0.354 -17.228  0.00  0.00    -0.000 A 
ATOM     19  C   UNL d   1       9.912   0.654 -16.299  0.00  0.00    -0.000 A 
ENDBRANCH  11  14
ENDBRANCH   7   8
ENDBRANCH   5   7
BRANCH   1  20
ATOM     20  C   UNL d   1      10.214   7.514  -7.493  0.00  0.00    -0.004 C 
ATOM     21  C   UNL d   1      10.467   8.851  -7.861  0.00  0.00     0.002 C 
ATOM     22  C   UNL d   1      10.938   9.753  -6.896  0.00  0.00     0.027 C 
ATOM     23  C   UNL d   1      11.081   9.354  -5.563  0.00  0.00     0.131 C 
ATOM     24  O   UNL d   1      11.292  10.296  -4.605  0.00  0.00    -0.190 OA
ATOM     25  C   UNL d   1      10.943   8.018  -5.209  0.00  0.00     0.027 C 
ATOM     26  C   UNL d   1      10.476   7.092  -6.156  0.00  0.00     0.002 C 
ENDBRANCH   1  20
TORSDOF 4
