REMARK  7 active torsions:
REMARK  status: ('A' for Active; 'I' for Inactive)
REMARK       I    between atoms: C_2  and  N_4 
REMARK    1  A    between atoms: N_4  and  C_5 
REMARK    2  A    between atoms: C_9  and  C_10 
REMARK    3  A    between atoms: N_13  and  C_14 
REMARK    4  A    between atoms: C_14  and  C_15 
REMARK    5  A    between atoms: C_15  and  C_16 
REMARK    6  A    between atoms: C_16  and  C_17 
REMARK    7  A    between atoms: C_17  and  C_19 
ROOT
ATOM      1  C   UNL d   1       8.604   2.976 -14.079  0.00  0.00     0.026 C 
ATOM      2  C   UNL d   1       7.396   3.867 -13.684  0.00  0.00     0.040 C 
ATOM      3  C   UNL d   1       7.664   4.618 -12.386  0.00  0.00     0.251 C 
ATOM      4  N   UNL d   1       8.917   5.377 -12.485  0.00  0.00     0.137 N 
ATOM      5  C   UNL d   1      10.068   4.517 -12.726  0.00  0.00     0.251 C 
ATOM      6  C   UNL d   1       9.899   3.808 -14.035  0.00  0.00     0.040 C 
ENDROOT
BRANCH   4   7
ATOM      7  C   UNL d   1       9.183   6.191 -11.340  0.00  0.00     0.251 C 
BRANCH   7   8
ATOM      8  C   UNL d   1       8.868   5.531  -9.978  0.00  0.00     0.043 C 
BRANCH   8   9
ATOM      9  C   UNL d   1       9.752   5.939  -8.811  0.00  0.00     0.071 C 
BRANCH   9  10
ATOM     10  C   UNL d   1      10.118   7.427  -8.683  0.00  0.00     0.173 C 
ATOM     11  O   UNL d   1      10.065   8.188  -9.646  0.00  0.00    -0.291 OA
BRANCH  10  12
ATOM     12  C   UNL d   1      10.620   7.873  -7.366  0.00  0.00     0.035 A 
ATOM     13  C   UNL d   1      10.645   7.042  -6.223  0.00  0.00     0.003 A 
ATOM     14  C   UNL d   1      11.104   7.555  -5.000  0.00  0.00    -0.004 A 
ATOM     15  C   UNL d   1      11.540   8.898  -4.918  0.00  0.00    -0.022 A 
ATOM     16  C   UNL d   1      11.536   9.727  -6.057  0.00  0.00    -0.004 A 
ATOM     17  C   UNL d   1      12.022   9.456  -3.610  0.00  0.00     0.031 C 
ATOM     18  C   UNL d   1      11.079   9.202  -7.273  0.00  0.00     0.003 A 
ENDBRANCH  10  12
ENDBRANCH   9  10
ENDBRANCH   8   9
ENDBRANCH   7   8
ENDBRANCH   4   7
BRANCH   1  19
ATOM     19  C   UNL d   1       8.379   2.297 -15.424  0.00  0.00    -0.021 A 
ATOM     20  C   UNL d   1       9.288   2.489 -16.501  0.00  0.00    -0.004 A 
ATOM     21  C   UNL d   1       9.051   1.921 -17.752  0.00  0.00     0.001 A 
ATOM     22  C   UNL d   1       7.922   1.131 -17.962  0.00  0.00     0.019 A 
ATOM     23  C   UNL d   1       6.982   0.924 -16.915  0.00  0.00     0.084 A 
ATOM     24  C   UNL d   1       7.232   1.485 -15.640  0.00  0.00     0.015 A 
BRANCH  23  25
ATOM     25  N   UNL d   1       5.816   0.135 -17.096  0.00  0.00    -0.212 NA
ATOM     26  C   UNL d   1       5.136  -0.018 -18.243  0.00  0.00     0.256 C 
ATOM     27  C   UNL d   1       3.985  -0.998 -18.253  0.00  0.00     0.100 C 
ATOM     28  O   UNL d   1       5.386   0.614 -19.286  0.00  0.00    -0.270 OA
ENDBRANCH  23  25
ENDBRANCH   1  19
TORSDOF 7
