REMARK  12 active torsions:
REMARK  status: ('A' for Active; 'I' for Inactive)
REMARK    1  A    between atoms: C_3  and  O_4 
REMARK    2  A    between atoms: O_4  and  C_5 
REMARK    3  A    between atoms: C_8  and  C_9 
REMARK    4  A    between atoms: C_12  and  C_13 
REMARK       I    between atoms: C_13  and  N_15 
REMARK    5  A    between atoms: N_15  and  C_16 
REMARK    6  A    between atoms: C_16  and  C_17 
REMARK    7  A    between atoms: C_17  and  C_18 
REMARK    8  A    between atoms: C_18  and  C_19 
REMARK    9  A    between atoms: C_19  and  N_20 
REMARK   10  A    between atoms: N_20  and  C_21 
REMARK   11  A    between atoms: N_20  and  C_24 
REMARK   12  A    between atoms: C_21  and  C_22 
ROOT
ATOM      1  C   UNL d   1      11.236   6.780  -5.088  0.00  0.00     0.079 C 
ATOM      2  C   UNL d   1      10.367   7.356  -5.756  0.00  0.00    -0.121 C 
ATOM      3  C   UNL d   1       9.322   8.017  -6.549  0.00  0.00     0.212 C 
ENDROOT
BRANCH   3   4
ATOM      4  O   UNL d   1       9.798   8.281  -7.867  0.00  0.00    -0.318 OA
BRANCH   4   5
ATOM      5  C   UNL d   1       9.586   7.340  -8.853  0.00  0.00     0.095 A 
ATOM      6  C   UNL d   1       9.870   7.723 -10.177  0.00  0.00     0.024 A 
ATOM      7  C   UNL d   1       9.608   6.845 -11.246  0.00  0.00     0.002 A 
ATOM      8  C   UNL d   1       9.070   5.562 -11.028  0.00  0.00     0.000 A 
ATOM      9  C   UNL d   1       8.802   5.173  -9.700  0.00  0.00     0.002 A 
ATOM     10  C   UNL d   1       9.066   6.041  -8.627  0.00  0.00     0.024 A 
BRANCH   8  11
ATOM     11  C   UNL d   1       8.809   4.650 -12.153  0.00  0.00     0.000 A 
ATOM     12  C   UNL d   1       9.870   4.010 -12.825  0.00  0.00     0.000 A 
ATOM     13  C   UNL d   1       9.643   3.118 -13.880  0.00  0.00     0.005 A 
ATOM     14  C   UNL d   1       8.326   2.834 -14.296  0.00  0.00     0.058 A 
ATOM     15  C   UNL d   1       7.253   3.486 -13.641  0.00  0.00     0.005 A 
ATOM     16  C   UNL d   1       7.493   4.383 -12.579  0.00  0.00     0.000 A 
BRANCH  14  17
ATOM     17  C   UNL d   1       8.077   1.897 -15.450  0.00  0.00     0.275 C 
ATOM     18  O   UNL d   1       7.099   2.024 -16.152  0.00  0.00    -0.266 OA
ATOM     19  N   UNL d   1       9.026   0.953 -15.660  0.00  0.00    -0.234 NA
BRANCH  19  20
ATOM     20  C   UNL d   1       9.110   0.075 -16.838  0.00  0.00     0.129 C 
BRANCH  20  21
ATOM     21  C   UNL d   1      10.001   0.686 -17.947  0.00  0.00     0.029 C 
BRANCH  21  22
ATOM     22  C   UNL d   1      11.438   1.026 -17.433  0.00  0.00     0.037 C 
BRANCH  22  23
ATOM     23  C   UNL d   1      12.276   1.843 -18.443  0.00  0.00     0.250 C 
BRANCH  23  24
ATOM     24  N   UNL d   1      12.140   3.302 -18.261  0.00  0.00     0.136 N 
BRANCH  24  25
ATOM     25  C   UNL d   1      13.058   4.057 -19.136  0.00  0.00     0.250 C 
BRANCH  25  26
ATOM     26  C   UNL d   1      14.531   3.911 -18.733  0.00  0.00     0.035 C 
ATOM     27  C   UNL d   1      14.845   4.719 -17.478  0.00  0.00     0.002 C 
ENDBRANCH  25  26
ENDBRANCH  24  25
BRANCH  24  28
ATOM     28  C   UNL d   1      10.729   3.695 -18.482  0.00  0.00     0.228 C 
ATOM     29  C   UNL d   1      10.377   5.160 -18.086  0.00  0.00     0.060 C 
ATOM     30  C   UNL d   1       9.454   5.595 -19.198  0.00  0.00    -0.024 A 
ATOM     31  C   UNL d   1       9.382   4.667 -20.235  0.00  0.00    -0.024 A 
ATOM     32  C   UNL d   1       8.743   6.798 -19.257  0.00  0.00    -0.004 A 
ATOM     33  C   UNL d   1      10.236   3.465 -19.970  0.00  0.00     0.060 C 
ATOM     34  C   UNL d   1       8.635   4.919 -21.400  0.00  0.00    -0.004 A 
ATOM     35  C   UNL d   1       7.927   6.137 -21.477  0.00  0.00    -0.000 A 
ATOM     36  C   UNL d   1       7.978   7.066 -20.411  0.00  0.00    -0.000 A 
ENDBRANCH  24  28
ENDBRANCH  23  24
ENDBRANCH  22  23
ENDBRANCH  21  22
ENDBRANCH  20  21
ENDBRANCH  19  20
ENDBRANCH  14  17
ENDBRANCH   8  11
ENDBRANCH   4   5
ENDBRANCH   3   4
TORSDOF 12
