REMARK  7 active torsions:
REMARK  status: ('A' for Active; 'I' for Inactive)
REMARK       I    between atoms: C_2  and  N_3 
REMARK    1  A    between atoms: C_2  and  C_23 
REMARK    2  A    between atoms: N_3  and  C_4 
REMARK    3  A    between atoms: C_4  and  C_5 
REMARK    4  A    between atoms: C_7  and  C_8 
REMARK    5  A    between atoms: C_8  and  N_9 
REMARK    6  A    between atoms: N_12  and  C_13 
REMARK    7  A    between atoms: C_26  and  C_27 
ROOT
ATOM      1  C   UNL d   1       6.948   3.633 -12.509  0.00  0.00     0.026 A 
ATOM      2  C   UNL d   1       6.041   4.034 -13.644  0.00  0.00     0.004 A 
ATOM      3  C   UNL d   1       6.538   2.620 -13.554  0.00  0.00     0.035 A 
ENDROOT
BRANCH   1   4
ATOM      4  C   UNL d   1       8.396   4.085 -12.473  0.00  0.00     0.129 C 
BRANCH   4   5
ATOM      5  N   UNL d   1       8.763   4.822 -11.280  0.00  0.00    -0.234 NA
ATOM      6  C   UNL d   1       9.086   6.119 -11.249  0.00  0.00     0.275 C 
ATOM      7  O   UNL d   1       9.059   6.849 -12.241  0.00  0.00    -0.266 OA
BRANCH   6   8
ATOM      8  C   UNL d   1       9.579   6.613  -9.922  0.00  0.00     0.058 A 
ATOM      9  C   UNL d   1      10.438   7.730  -9.857  0.00  0.00     0.005 A 
ATOM     10  C   UNL d   1      10.883   8.217  -8.611  0.00  0.00     0.002 A 
ATOM     11  C   UNL d   1      10.466   7.609  -7.408  0.00  0.00     0.018 A 
ATOM     12  C   UNL d   1       9.600   6.498  -7.479  0.00  0.00     0.002 A 
ATOM     13  C   UNL d   1       9.146   6.011  -8.718  0.00  0.00     0.005 A 
BRANCH  11  14
ATOM     14  C   UNL d   1      10.918   8.117  -6.103  0.00  0.00     0.081 A 
ATOM     15  N   UNL d   1      10.789   9.449  -5.907  0.00  0.00    -0.244 NA
ATOM     16  C   UNL d   1      11.182   9.964  -4.727  0.00  0.00     0.099 A 
ATOM     17  C   UNL d   1      11.727   9.189  -3.686  0.00  0.00     0.021 A 
ATOM     18  C   UNL d   1      11.863   7.803  -3.886  0.00  0.00     0.003 A 
ATOM     19  C   UNL d   1      11.444   7.256  -5.115  0.00  0.00     0.019 A 
ENDBRANCH  11  14
ENDBRANCH   6   8
ENDBRANCH   4   5
ENDBRANCH   1   4
BRANCH   3  20
ATOM     20  C   UNL d   1       7.592   2.084 -14.521  0.00  0.00     0.250 C 
BRANCH  20  21
ATOM     21  N   UNL d   1       7.036   1.635 -15.785  0.00  0.00     0.141 N 
ATOM     22  C   UNL d   1       8.123   1.083 -16.603  0.00  0.00     0.274 C 
ATOM     23  C   UNL d   1       7.594   0.665 -17.989  0.00  0.00     0.137 C 
ATOM     24  N   UNL d   1       6.462  -0.239 -17.849  0.00  0.00    -0.344 N 
ATOM     25  C   UNL d   1       5.421   0.200 -16.936  0.00  0.00     0.137 C 
ATOM     26  C   UNL d   1       6.013   0.604 -15.586  0.00  0.00     0.274 C 
BRANCH  24  27
ATOM     27  C   UNL d   1       6.380  -1.477 -18.504  0.00  0.00     0.068 A 
ATOM     28  C   UNL d   1       5.203  -1.876 -19.186  0.00  0.00     0.084 A 
ATOM     29  C   UNL d   1       5.141  -3.144 -19.802  0.00  0.00     0.070 A 
ATOM     30 CL   UNL d   1       3.862  -0.793 -19.333  0.00  0.00    -0.080 Cl
ATOM     31  C   UNL d   1       6.246  -4.009 -19.749  0.00  0.00     0.012 A 
ATOM     32 CL   UNL d   1       3.728  -3.649 -20.652  0.00  0.00    -0.081 Cl
ATOM     33  C   UNL d   1       7.417  -3.615 -19.080  0.00  0.00     0.002 A 
ATOM     34  C   UNL d   1       7.486  -2.349 -18.473  0.00  0.00     0.018 A 
ENDBRANCH  24  27
ENDBRANCH  20  21
ENDBRANCH   3  20
TORSDOF 7
