REMARK  5 active torsions:
REMARK  status: ('A' for Active; 'I' for Inactive)
REMARK    1  A    between atoms: C_7  and  O_8 
REMARK    2  A    between atoms: O_8  and  C_9 
REMARK    3  A    between atoms: C_9  and  C_10 
REMARK    4  A    between atoms: C_10  and  N_11 
REMARK    5  A    between atoms: N_14  and  C_15 
ROOT
ATOM      1  N   UNL d   1       9.476   6.972  -9.838  0.00  0.00     0.144 N 
ATOM      2  C   UNL d   1       8.868   6.464  -8.630  0.00  0.00     0.274 C 
ATOM      3  C   UNL d   1       8.861   7.579  -7.572  0.00  0.00     0.137 C 
ATOM      4  N   UNL d   1      10.194   8.105  -7.375  0.00  0.00    -0.344 N 
ATOM      5  C   UNL d   1      10.932   8.505  -8.555  0.00  0.00     0.137 C 
ATOM      6  C   UNL d   1      10.870   7.357  -9.567  0.00  0.00     0.274 C 
ENDROOT
BRANCH   1   7
ATOM      7  C   UNL d   1       9.434   5.855 -10.794  0.00  0.00     0.283 C 
BRANCH   7   8
ATOM      8  C   UNL d   1       8.255   5.893 -11.808  0.00  0.00     0.184 C 
BRANCH   8   9
ATOM      9  O   UNL d   1       7.908   4.626 -12.391  0.00  0.00    -0.329 OA
BRANCH   9  10
ATOM     10  C   UNL d   1       8.781   4.026 -13.255  0.00  0.00     0.096 A 
ATOM     11  C   UNL d   1      10.129   4.451 -13.412  0.00  0.00     0.026 A 
ATOM     12  C   UNL d   1      11.037   3.816 -14.248  0.00  0.00     0.023 A 
ATOM     13  C   UNL d   1      10.539   2.784 -15.027  0.00  0.00     0.102 A 
ATOM     14  N   UNL d   1      11.170   2.037 -16.008  0.00  0.00    -0.216 NA
ATOM     15  C   UNL d   1       9.229   2.356 -14.950  0.00  0.00     0.103 A 
ATOM     16  C   UNL d   1      10.319   1.147 -16.552  0.00  0.00     0.221 A 
ATOM     17  S   UNL d   1      10.653   0.059 -17.735  0.00  0.00    -0.037 SA
ATOM     18  N   UNL d   1       9.125   1.335 -15.911  0.00  0.00    -0.216 NA
ATOM     19  C   UNL d   1       8.289   2.917 -14.046  0.00  0.00     0.045 A 
ENDBRANCH   9  10
ENDBRANCH   8   9
ENDBRANCH   7   8
ENDBRANCH   1   7
BRANCH   4  20
ATOM     20  C   UNL d   1      10.777   8.143  -6.108  0.00  0.00     0.056 A 
ATOM     21  C   UNL d   1      11.059   6.951  -5.431  0.00  0.00     0.018 A 
ATOM     22  C   UNL d   1      11.659   6.995  -4.155  0.00  0.00     0.013 A 
ATOM     23  C   UNL d   1      11.945   8.247  -3.567  0.00  0.00     0.058 A 
ATOM     24  C   UNL d   1      11.634   9.438  -4.247  0.00  0.00     0.013 A 
ATOM     25 CL   UNL d   1      12.637   8.341  -2.005  0.00  0.00    -0.082 Cl
ATOM     26  C   UNL d   1      11.063   9.387  -5.530  0.00  0.00     0.018 A 
ENDBRANCH   4  20
TORSDOF 5
