REMARK  3 active torsions:
REMARK  status: ('A' for Active; 'I' for Inactive)
REMARK    1  A    between atoms: C_8  and  C_9 
REMARK    2  A    between atoms: C_9  and  N_10 
REMARK    3  A    between atoms: N_13  and  C_14 
ROOT
ATOM      1  N   UNL d   1       9.532   6.662 -11.213  0.00  0.00     0.147 N 
ATOM      2  C   UNL d   1      10.130   7.976 -10.915  0.00  0.00     0.275 C 
ATOM      3  C   UNL d   1      11.299   7.790  -9.933  0.00  0.00     0.137 C 
ATOM      4  N   UNL d   1      10.795   7.151  -8.719  0.00  0.00    -0.344 N 
ATOM      5  C   UNL d   1      10.016   5.920  -8.912  0.00  0.00     0.137 C 
ATOM      6  C   UNL d   1       8.948   6.115  -9.975  0.00  0.00     0.275 C 
ENDROOT
BRANCH   1   7
ATOM      7  C   UNL d   1       8.521   6.805 -12.258  0.00  0.00     0.295 C 
BRANCH   7   8
ATOM      8  C   UNL d   1       7.851   5.528 -12.680  0.00  0.00     0.091 A 
ATOM      9  C   UNL d   1       6.550   5.204 -12.425  0.00  0.00     0.075 A 
ATOM     10  N   UNL d   1       6.200   3.989 -12.982  0.00  0.00    -0.231 NA
ATOM     11  C   UNL d   1       5.554   5.981 -11.646  0.00  0.00     0.053 C 
ATOM     12  C   UNL d   1       7.298   3.549 -13.575  0.00  0.00     0.149 A 
ATOM     13  C   UNL d   1       7.543   2.355 -14.298  0.00  0.00     0.052 A 
ATOM     14  N   UNL d   1       8.382   4.459 -13.427  0.00  0.00    -0.281 N 
ATOM     15  C   UNL d   1       8.812   2.151 -14.767  0.00  0.00     0.064 A 
ATOM     16  C   UNL d   1       9.191   0.898 -15.503  0.00  0.00     0.052 C 
ATOM     17  N   UNL d   1       9.841   3.026 -14.608  0.00  0.00    -0.236 NA
ATOM     18  C   UNL d   1       9.599   4.138 -13.980  0.00  0.00     0.125 A 
ATOM     19  C   UNL d   1      10.798   5.023 -13.818  0.00  0.00     0.072 C 
ENDBRANCH   7   8
ENDBRANCH   1   7
BRANCH   4  20
ATOM     20  C   UNL d   1      11.023   7.681  -7.440  0.00  0.00     0.056 A 
ATOM     21  C   UNL d   1      11.088   6.818  -6.322  0.00  0.00     0.018 A 
ATOM     22  C   UNL d   1      11.270   7.324  -5.028  0.00  0.00     0.013 A 
ATOM     23  C   UNL d   1      11.444   8.708  -4.829  0.00  0.00     0.058 A 
ATOM     24  C   UNL d   1      11.375   9.581  -5.936  0.00  0.00     0.013 A 
ATOM     25 CL   UNL d   1      11.767   9.332  -3.258  0.00  0.00    -0.082 Cl
ATOM     26  C   UNL d   1      11.170   9.073  -7.232  0.00  0.00     0.018 A 
ENDBRANCH   4  20
TORSDOF 3
