REMARK  7 active torsions:
REMARK  status: ('A' for Active; 'I' for Inactive)
REMARK    1  A    between atoms: C_2  and  C_3 
REMARK    2  A    between atoms: C_3  and  C_4 
REMARK    3  A    between atoms: C_4  and  N_5 
REMARK    4  A    between atoms: N_8  and  C_9 
REMARK    5  A    between atoms: C_9  and  C_10 
REMARK    6  A    between atoms: C_10  and  C_11 
REMARK    7  A    between atoms: C_11  and  N_12 
ROOT
ATOM      1  C   UNL d   1       9.396   6.406 -11.190  0.00  0.00     0.060 C 
ENDROOT
BRANCH   1   2
ATOM      2  C   UNL d   1       9.905   7.765 -10.693  0.00  0.00     0.252 C 
BRANCH   2   3
ATOM      3  N   UNL d   1      10.538   7.700  -9.379  0.00  0.00     0.141 N 
ATOM      4  C   UNL d   1      11.700   8.581  -9.308  0.00  0.00     0.285 C 
ATOM      5  C   UNL d   1      12.363   8.532  -7.923  0.00  0.00     0.285 C 
ATOM      6  N   UNL d   1      11.431   8.932  -6.864  0.00  0.00     0.141 N 
ATOM      7  C   UNL d   1      10.267   8.037  -6.931  0.00  0.00     0.285 C 
ATOM      8  C   UNL d   1       9.600   8.069  -8.317  0.00  0.00     0.285 C 
BRANCH   6   9
ATOM      9  C   UNL d   1      12.076   8.883  -5.557  0.00  0.00     0.250 C 
BRANCH   9  10
ATOM     10  C   UNL d   1      11.304   9.565  -4.419  0.00  0.00     0.035 C 
BRANCH  10  11
ATOM     11  C   UNL d   1      11.998   9.399  -3.055  0.00  0.00     0.002 C 
ATOM     12  C   UNL d   1      12.074   7.942  -2.562  0.00  0.00     0.000 C 
ENDBRANCH  10  11
ENDBRANCH   9  10
ENDBRANCH   6   9
ENDBRANCH   2   3
ENDBRANCH   1   2
BRANCH   1  13
ATOM     13  C   UNL d   1       9.062   6.443 -12.703  0.00  0.00     0.111 C 
BRANCH  13  14
ATOM     14  N   UNL d   1       8.945   5.090 -13.286  0.00  0.00    -0.299 N 
ATOM     15  C   UNL d   1       7.700   4.387 -13.148  0.00  0.00     0.058 A 
ATOM     16  C   UNL d   1       7.466   3.200 -13.889  0.00  0.00    -0.006 A 
ATOM     17  C   UNL d   1       6.685   4.863 -12.281  0.00  0.00     0.017 A 
ATOM     18  C   UNL d   1       8.530   2.701 -14.845  0.00  0.00     0.038 C 
ATOM     19  C   UNL d   1       6.256   2.488 -13.730  0.00  0.00    -0.003 A 
ATOM     20  C   UNL d   1       9.936   3.077 -14.367  0.00  0.00     0.093 C 
ATOM     21  C   UNL d   1      10.023   4.530 -13.895  0.00  0.00     0.238 C 
ATOM     22  O   UNL d   1      11.089   5.129 -14.060  0.00  0.00    -0.272 OA
ATOM     23  C   UNL d   1       5.269   2.956 -12.835  0.00  0.00    -0.000 A 
ATOM     24  C   UNL d   1       5.495   4.139 -12.119  0.00  0.00     0.002 A 
ENDBRANCH  13  14
ENDBRANCH   1  13
TORSDOF 7
