REMARK  19 active torsions:
REMARK  status: ('A' for Active; 'I' for Inactive)
REMARK       I    between atoms: C_2  and  N_3 
REMARK    1  A    between atoms: C_2  and  C_24 
REMARK    2  A    between atoms: N_3  and  C_4 
REMARK    3  A    between atoms: C_4  and  C_5 
REMARK    4  A    between atoms: C_5  and  C_6 
REMARK    5  A    between atoms: C_6  and  C_7 
REMARK    6  A    between atoms: C_7  and  N_8 
REMARK    7  A    between atoms: N_11  and  C_12 
REMARK    8  A    between atoms: C_17  and  O_18 
REMARK    9  A    between atoms: O_18  and  C_19 
REMARK   10  A    between atoms: C_19  and  C_20 
REMARK   11  A    between atoms: C_27  and  O_28 
REMARK   12  A    between atoms: O_28  and  C_29 
REMARK   13  A    between atoms: C_29  and  C_30 
REMARK   14  A    between atoms: C_30  and  O_31 
REMARK   15  A    between atoms: O_31  and  C_32 
REMARK   16  A    between atoms: C_32  and  C_33 
REMARK   17  A    between atoms: C_33  and  O_34 
REMARK   18  A    between atoms: O_34  and  C_35 
REMARK   19  A    between atoms: C_35  and  C_36 
ROOT
ATOM      1  C   UNL d   1      12.861  -0.392 -19.987  0.00  0.00     0.129 C 
ENDROOT
BRANCH   1   2
ATOM      2  N   UNL d   1      13.843   0.658 -20.201  0.00  0.00    -0.234 NA
ATOM      3  C   UNL d   1      14.924   0.510 -20.963  0.00  0.00     0.275 C 
ATOM      4  O   UNL d   1      15.287  -0.579 -21.416  0.00  0.00    -0.266 OA
BRANCH   3   5
ATOM      5  C   UNL d   1      15.706   1.759 -21.237  0.00  0.00     0.058 A 
ATOM      6  C   UNL d   1      15.175   3.058 -21.031  0.00  0.00     0.007 A 
ATOM      7  C   UNL d   1      15.929   4.203 -21.361  0.00  0.00     0.024 A 
ATOM      8  C   UNL d   1      17.222   4.061 -21.918  0.00  0.00     0.094 A 
ATOM      9  C   UNL d   1      17.740   2.765 -22.122  0.00  0.00     0.024 A 
ATOM     10  C   UNL d   1      16.996   1.629 -21.787  0.00  0.00     0.007 A 
BRANCH   8  11
ATOM     11  O   UNL d   1      17.929   5.190 -22.246  0.00  0.00    -0.328 OA
BRANCH  11  12
ATOM     12  C   UNL d   1      19.256   5.002 -22.706  0.00  0.00     0.181 C 
BRANCH  12  13
ATOM     13  C   UNL d   1      19.946   6.344 -22.931  0.00  0.00     0.175 C 
BRANCH  13  14
ATOM     14  O   UNL d   1      20.252   6.977 -21.695  0.00  0.00    -0.349 OA
BRANCH  14  15
ATOM     15  C   UNL d   1      21.182   6.289 -20.863  0.00  0.00     0.174 C 
BRANCH  15  16
ATOM     16  C   UNL d   1      22.617   6.372 -21.422  0.00  0.00     0.174 C 
BRANCH  16  17
ATOM     17  O   UNL d   1      23.291   7.443 -20.799  0.00  0.00    -0.349 OA
BRANCH  17  18
ATOM     18  C   UNL d   1      24.654   7.476 -21.150  0.00  0.00     0.180 C 
BRANCH  18  19
ATOM     19  C   UNL d   1      25.354   8.538 -20.303  0.00  0.00     0.225 C 
ATOM     20  F   UNL d   1      24.945   9.759 -20.645  0.00  0.00    -0.232 F 
ENDBRANCH  18  19
ENDBRANCH  17  18
ENDBRANCH  16  17
ENDBRANCH  15  16
ENDBRANCH  14  15
ENDBRANCH  13  14
ENDBRANCH  12  13
ENDBRANCH  11  12
ENDBRANCH   8  11
ENDBRANCH   3   5
ENDBRANCH   1   2
BRANCH   1  21
ATOM     21  C   UNL d   1      11.621   0.202 -19.319  0.00  0.00     0.029 C 
BRANCH  21  22
ATOM     22  C   UNL d   1      10.469  -0.802 -19.163  0.00  0.00     0.037 C 
BRANCH  22  23
ATOM     23  C   UNL d   1       9.145  -0.185 -18.674  0.00  0.00     0.251 C 
BRANCH  23  24
ATOM     24  N   UNL d   1       9.193   0.153 -17.252  0.00  0.00     0.141 N 
ATOM     25  C   UNL d   1       7.852   0.040 -16.670  0.00  0.00     0.274 C 
ATOM     26  C   UNL d   1       7.906   0.362 -15.155  0.00  0.00     0.137 C 
ATOM     27  N   UNL d   1       8.488   1.681 -14.933  0.00  0.00    -0.343 N 
ATOM     28  C   UNL d   1       9.761   1.887 -15.606  0.00  0.00     0.137 C 
ATOM     29  C   UNL d   1       9.653   1.540 -17.094  0.00  0.00     0.274 C 
BRANCH  27  30
ATOM     30  C   UNL d   1       7.862   2.692 -14.169  0.00  0.00     0.079 A 
ATOM     31  C   UNL d   1       8.611   3.656 -13.459  0.00  0.00     0.110 A 
ATOM     32  C   UNL d   1       7.946   4.672 -12.724  0.00  0.00     0.026 A 
ATOM     33  C   UNL d   1       6.538   4.712 -12.666  0.00  0.00     0.002 A 
ATOM     34  C   UNL d   1       5.797   3.738 -13.351  0.00  0.00     0.002 A 
ATOM     35  C   UNL d   1       6.456   2.744 -14.101  0.00  0.00     0.019 A 
BRANCH  31  36
ATOM     36  O   UNL d   1       9.991   3.537 -13.446  0.00  0.00    -0.326 OA
BRANCH  36  37
ATOM     37  C   UNL d   1      10.753   4.732 -13.413  0.00  0.00     0.187 C 
BRANCH  37  38
ATOM     38  C   UNL d   1      12.217   4.364 -13.705  0.00  0.00     0.226 C 
ATOM     39  F   UNL d   1      12.597   4.798 -14.903  0.00  0.00    -0.232 F 
ENDBRANCH  37  38
ENDBRANCH  36  37
ENDBRANCH  31  36
ENDBRANCH  27  30
ENDBRANCH  23  24
ENDBRANCH  22  23
ENDBRANCH  21  22
ENDBRANCH   1  21
TORSDOF 19
