REMARK  6 active torsions:
REMARK  status: ('A' for Active; 'I' for Inactive)
REMARK    1  A    between atoms: O_2  and  C_3 
REMARK    2  A    between atoms: C_8  and  N_9 
REMARK    3  A    between atoms: N_12  and  C_13 
REMARK    4  A    between atoms: C_13  and  C_14 
REMARK    5  A    between atoms: C_14  and  C_15 
REMARK    6  A    between atoms: C_15  and  N_16 
ROOT
ATOM      1  N   UNL d   1       7.558   0.371 -15.699  0.00  0.00    -0.343 N 
ATOM      2  C   UNL d   1       8.562   0.654 -14.677  0.00  0.00     0.137 C 
ATOM      3  C   UNL d   1       9.073   2.100 -14.844  0.00  0.00     0.274 C 
ATOM      4  N   UNL d   1       9.617   2.288 -16.196  0.00  0.00     0.141 N 
ATOM      5  C   UNL d   1       8.546   2.054 -17.179  0.00  0.00     0.274 C 
ATOM      6  C   UNL d   1       7.996   0.618 -17.064  0.00  0.00     0.137 C 
ENDROOT
BRANCH   4   7
ATOM      7  C   UNL d   1      10.151   3.644 -16.323  0.00  0.00     0.252 C 
BRANCH   7   8
ATOM      8  C   UNL d   1      11.184   3.716 -17.462  0.00  0.00     0.060 C 
BRANCH   8   9
ATOM      9  C   UNL d   1      12.549   3.133 -17.041  0.00  0.00     0.111 C 
BRANCH   9  10
ATOM     10  N   UNL d   1      13.443   2.969 -18.198  0.00  0.00    -0.295 N 
ATOM     11  C   UNL d   1      13.470   1.732 -18.925  0.00  0.00     0.085 A 
ATOM     12  C   UNL d   1      14.516   1.506 -19.855  0.00  0.00     0.110 A 
ATOM     13  C   UNL d   1      12.523   0.700 -18.705  0.00  0.00     0.019 A 
ATOM     14  O   UNL d   1      15.461   2.476 -20.088  0.00  0.00    -0.319 OA
ATOM     15  C   UNL d   1      14.633   0.271 -20.521  0.00  0.00     0.026 A 
ATOM     16  C   UNL d   1      15.034   3.822 -19.878  0.00  0.00     0.236 C 
ATOM     17  C   UNL d   1      14.255   3.990 -18.566  0.00  0.00     0.268 C 
ATOM     18  O   UNL d   1      14.377   5.036 -17.928  0.00  0.00    -0.269 OA
ATOM     19  C   UNL d   1      13.695  -0.750 -20.283  0.00  0.00     0.002 A 
ATOM     20  C   UNL d   1      12.640  -0.531 -19.378  0.00  0.00     0.002 A 
ENDBRANCH   9  10
ENDBRANCH   8   9
ENDBRANCH   7   8
ENDBRANCH   4   7
BRANCH   1  21
ATOM     21  C   UNL d   1       6.256  -0.079 -15.405  0.00  0.00     0.079 A 
ATOM     22  C   UNL d   1       5.511   0.482 -14.336  0.00  0.00     0.110 A 
ATOM     23  C   UNL d   1       4.217  -0.026 -14.057  0.00  0.00     0.026 A 
ATOM     24  C   UNL d   1       3.658  -1.046 -14.848  0.00  0.00     0.002 A 
ATOM     25  C   UNL d   1       4.388  -1.592 -15.916  0.00  0.00     0.002 A 
ATOM     26  C   UNL d   1       5.681  -1.106 -16.191  0.00  0.00     0.019 A 
BRANCH  22  27
ATOM     27  O   UNL d   1       6.064   1.539 -13.645  0.00  0.00    -0.327 OA
ATOM     28  C   UNL d   1       5.385   2.046 -12.513  0.00  0.00     0.181 C 
ENDBRANCH  22  27
ENDBRANCH   1  21
TORSDOF 6
