REMARK  3 active torsions:
REMARK  status: ('A' for Active; 'I' for Inactive)
REMARK    1  A    between atoms: N_13  and  C_14 
REMARK    2  A    between atoms: C_14  and  C_15 
REMARK    3  A    between atoms: C_15  and  C_16 
ROOT
ATOM      1  O   UNL d   1       8.268   7.635  -7.192  0.00  0.00    -0.192 OA
ATOM      2  C   UNL d   1       8.990   6.797  -8.033  0.00  0.00     0.314 C 
ATOM      3  C   UNL d   1       8.216   5.574  -8.555  0.00  0.00     0.061 C 
ATOM      4  C   UNL d   1       7.812   5.876 -10.034  0.00  0.00     0.004 C 
ATOM      5  C   UNL d   1       7.978   4.556 -10.744  0.00  0.00     0.000 C 
ATOM      6  C   UNL d   1       9.429   4.443 -10.337  0.00  0.00     0.002 C 
ATOM      7  C   UNL d   1      10.032   5.793 -10.716  0.00  0.00     0.002 A 
ATOM      8  C   UNL d   1       8.931   6.783 -10.502  0.00  0.00     0.005 A 
ATOM      9  C   UNL d   1       9.630   7.370  -9.284  0.00  0.00     0.061 A 
ATOM     10  C   UNL d   1      10.736   6.383  -9.510  0.00  0.00     0.036 A 
ATOM     11  C   UNL d   1      10.569   5.384  -8.343  0.00  0.00     0.222 C 
ATOM     12  C   UNL d   1       9.347   4.543  -8.788  0.00  0.00     0.036 C 
ATOM     13  N   UNL d   1      10.047   6.162  -7.250  0.00  0.00     0.159 N 
ENDROOT
BRANCH  13  14
ATOM     14  C   UNL d   1      11.079   7.026  -6.715  0.00  0.00     0.258 C 
BRANCH  14  15
ATOM     15  C   UNL d   1      11.635   6.455  -5.394  0.00  0.00     0.062 C 
BRANCH  15  16
ATOM     16  C   UNL d   1      11.867   7.489  -4.313  0.00  0.00    -0.020 A 
ATOM     17  C   UNL d   1      12.360   7.066  -3.045  0.00  0.00    -0.004 A 
ATOM     18  C   UNL d   1      12.529   7.986  -2.001  0.00  0.00    -0.000 A 
ATOM     19  C   UNL d   1      12.156   9.323  -2.184  0.00  0.00    -0.000 A 
ATOM     20  C   UNL d   1      11.667   9.755  -3.436  0.00  0.00    -0.000 A 
ATOM     21  C   UNL d   1      11.540   8.862  -4.491  0.00  0.00    -0.004 A 
ENDBRANCH  15  16
ENDBRANCH  14  15
ENDBRANCH  13  14
TORSDOF 3
