REMARK  4 active torsions:
REMARK  status: ('A' for Active; 'I' for Inactive)
REMARK    1  A    between atoms: O_2  and  C_3 
REMARK    2  A    between atoms: C_6  and  N_7 
REMARK       I    between atoms: N_7  and  C_8 
REMARK       I    between atoms: C_8  and  N_10 
REMARK    3  A    between atoms: N_13  and  C_14 
REMARK    4  A    between atoms: C_24  and  N_25 
ROOT
ATOM      1  N   UNL d   1       8.308   5.402 -10.939  0.00  0.00    -0.193 NA
ATOM      2  C   UNL d   1       9.071   6.499 -10.929  0.00  0.00     0.346 C 
ATOM      3  O   UNL d   1       9.393   7.075 -11.969  0.00  0.00    -0.245 OA
ATOM      4  N   UNL d   1       9.460   6.921  -9.691  0.00  0.00    -0.297 N 
ATOM      5  C   UNL d   1      10.210   8.175  -9.482  0.00  0.00     0.130 C 
ATOM      6  C   UNL d   1      11.434   7.885  -8.596  0.00  0.00     0.126 C 
ATOM      7  N   UNL d   1      11.046   7.189  -7.360  0.00  0.00    -0.343 N 
ATOM      8  C   UNL d   1      10.165   6.033  -7.536  0.00  0.00     0.126 C 
ATOM      9  C   UNL d   1       8.962   6.385  -8.407  0.00  0.00     0.130 C 
ENDROOT
BRANCH   1  10
ATOM     10  C   UNL d   1       7.981   4.619 -12.074  0.00  0.00     0.087 A 
ATOM     11  C   UNL d   1       6.714   4.013 -12.148  0.00  0.00     0.021 A 
ATOM     12  C   UNL d   1       6.384   3.197 -13.244  0.00  0.00     0.027 A 
ATOM     13  C   UNL d   1       7.342   2.943 -14.258  0.00  0.00     0.104 A 
ATOM     14  C   UNL d   1       8.625   3.536 -14.175  0.00  0.00     0.061 A 
ATOM     15  C   UNL d   1       8.945   4.343 -13.069  0.00  0.00     0.033 A 
BRANCH  13  16
ATOM     16  O   UNL d   1       7.048   2.210 -15.387  0.00  0.00    -0.327 OA
ATOM     17  C   UNL d   1       6.309   1.015 -15.211  0.00  0.00     0.181 C 
ENDBRANCH  13  16
BRANCH  14  18
ATOM     18  N   UNL d   1       9.583   3.290 -15.170  0.00  0.00    -0.247 NA
ATOM     19  C   UNL d   1      10.643   4.278 -15.364  0.00  0.00     0.112 C 
ATOM     20  C   UNL d   1      11.457   3.962 -16.631  0.00  0.00     0.268 C 
ATOM     21  N   UNL d   1      12.010   2.613 -16.538  0.00  0.00     0.142 N 
ATOM     22  C   UNL d   1      10.907   1.652 -16.435  0.00  0.00     0.268 C 
ATOM     23  C   UNL d   1      12.796   2.321 -17.726  0.00  0.00     0.285 C 
ATOM     24  C   UNL d   1      10.087   1.923 -15.158  0.00  0.00     0.112 C 
ENDBRANCH  14  18
ENDBRANCH   1  10
BRANCH   7  25
ATOM     25  C   UNL d   1      11.214   7.748  -6.087  0.00  0.00     0.084 A 
ATOM     26  C   UNL d   1      11.187   9.147  -5.850  0.00  0.00     0.155 A 
ATOM     27  C   UNL d   1      11.473   9.671  -4.574  0.00  0.00     0.031 A 
ATOM     28  F   UNL d   1      10.868  10.010  -6.834  0.00  0.00    -0.203 F 
ATOM     29  C   UNL d   1      11.837   8.826  -3.516  0.00  0.00     0.002 A 
ATOM     30  C   UNL d   1      11.850   7.437  -3.715  0.00  0.00     0.002 A 
ATOM     31  C   UNL d   1      11.508   6.905  -4.982  0.00  0.00     0.019 A 
ENDBRANCH   7  25
TORSDOF 4
