REMARK  4 active torsions:
REMARK  status: ('A' for Active; 'I' for Inactive)
REMARK    1  A    between atoms: O_2  and  C_3 
REMARK    2  A    between atoms: C_6  and  S_7 
REMARK    3  A    between atoms: S_7  and  N_10 
REMARK    4  A    between atoms: N_10  and  C_11 
ROOT
ATOM      1  S   UNL d   1      10.226   8.710  -8.237  0.00  0.00     0.285 S 
ATOM      2  O   UNL d   1       8.813   9.021  -8.003  0.00  0.00    -0.198 OA
ATOM      3  O   UNL d   1      11.094   9.574  -9.022  0.00  0.00    -0.198 OA
ENDROOT
BRANCH   1   4
ATOM      4  C   UNL d   1      10.918   8.419  -6.634  0.00  0.00     0.105 A 
ATOM      5  C   UNL d   1      11.485   9.473  -5.898  0.00  0.00     0.015 A 
ATOM      6  C   UNL d   1      11.969   9.194  -4.600  0.00  0.00     0.025 A 
ATOM      7  C   UNL d   1      11.865   7.886  -4.049  0.00  0.00     0.094 A 
ATOM      8  C   UNL d   1      11.269   6.862  -4.804  0.00  0.00     0.025 A 
ATOM      9  C   UNL d   1      10.766   7.139  -6.075  0.00  0.00     0.015 A 
BRANCH   7  10
ATOM     10  O   UNL d   1      12.321   7.521  -2.809  0.00  0.00    -0.328 OA
ATOM     11  C   UNL d   1      12.668   8.563  -1.918  0.00  0.00     0.181 C 
ENDBRANCH   7  10
ENDBRANCH   1   4
BRANCH   1  12
ATOM     12  N   UNL d   1      10.361   7.168  -9.054  0.00  0.00    -0.159 NA
BRANCH  12  13
ATOM     13  C   UNL d   1       9.494   6.592  -9.994  0.00  0.00     0.086 A 
ATOM     14  C   UNL d   1       9.196   7.160 -11.253  0.00  0.00    -0.004 A 
ATOM     15  C   UNL d   1       8.285   6.553 -12.132  0.00  0.00    -0.007 A 
ATOM     16  C   UNL d   1       9.775   8.479 -11.630  0.00  0.00     0.033 C 
ATOM     17  C   UNL d   1       7.660   5.347 -11.751  0.00  0.00    -0.022 A 
ATOM     18  C   UNL d   1       7.976   4.787 -10.526  0.00  0.00    -0.007 A 
ATOM     19  C   UNL d   1       6.617   4.686 -12.615  0.00  0.00     0.031 C 
ATOM     20  C   UNL d   1       8.887   5.376  -9.653  0.00  0.00    -0.004 A 
ATOM     21  C   UNL d   1       9.144   4.778  -8.322  0.00  0.00     0.033 C 
ENDBRANCH  12  13
ENDBRANCH   1  12
TORSDOF 4
