REMARK  7 active torsions:
REMARK  status: ('A' for Active; 'I' for Inactive)
REMARK    1  A    between atoms: C_5  and  C_6 
REMARK    2  A    between atoms: N_14  and  C_15 
REMARK    3  A    between atoms: C_15  and  C_16 
REMARK    4  A    between atoms: C_16  and  C_17 
REMARK    5  A    between atoms: C_17  and  S_18 
REMARK    6  A    between atoms: S_18  and  C_19 
REMARK    7  A    between atoms: C_22  and  C_23 
ROOT
ATOM      1  C   UNL d   1      10.852   8.016  -7.005  0.00  0.00     0.041 A 
ATOM      2  C   UNL d   1      11.398   8.863  -7.986  0.00  0.00     0.003 A 
ATOM      3  C   UNL d   1      10.975   8.755  -9.327  0.00  0.00    -0.004 A 
ATOM      4  C   UNL d   1      10.014   7.789  -9.694  0.00  0.00    -0.024 A 
ATOM      5  C   UNL d   1       9.499   6.912  -8.713  0.00  0.00    -0.024 A 
ATOM      6  C   UNL d   1       9.919   7.030  -7.372  0.00  0.00    -0.001 A 
ATOM      7  C   UNL d   1       8.470   5.854  -9.069  0.00  0.00     0.061 C 
ATOM      8  C   UNL d   1       8.919   4.838 -10.122  0.00  0.00     0.255 C 
ATOM      9  N   UNL d   1       8.813   5.330 -11.505  0.00  0.00     0.138 N 
ATOM     10  C   UNL d   1       9.783   6.374 -11.793  0.00  0.00     0.255 C 
ATOM     11  C   UNL d   1       9.544   7.720 -11.139  0.00  0.00     0.061 C 
ENDROOT
BRANCH   9  12
ATOM     12  C   UNL d   1       9.018   4.198 -12.400  0.00  0.00     0.251 C 
BRANCH  12  13
ATOM     13  C   UNL d   1       8.674   4.498 -13.867  0.00  0.00     0.047 C 
BRANCH  13  14
ATOM     14  C   UNL d   1       8.736   3.266 -14.764  0.00  0.00     0.067 C 
BRANCH  14  15
ATOM     15  S   UNL d   1       7.324   2.149 -14.480  0.00  0.00    -0.075 SA
BRANCH  15  16
ATOM     16  C   UNL d   1       7.071   1.463 -16.087  0.00  0.00     0.193 A 
ATOM     17  N   UNL d   1       6.232   0.436 -16.307  0.00  0.00    -0.288 N 
ATOM     18  C   UNL d   1       6.314   0.273 -17.647  0.00  0.00     0.173 A 
ATOM     19  C   UNL d   1       5.431  -0.294 -15.329  0.00  0.00     0.134 C 
ATOM     20  N   UNL d   1       7.124   1.175 -18.224  0.00  0.00    -0.128 NA
ATOM     21  N   UNL d   1       7.628   1.932 -17.209  0.00  0.00    -0.122 NA
BRANCH  18  22
ATOM     22  C   UNL d   1       5.614  -0.729 -18.443  0.00  0.00     0.065 A 
ATOM     23  S   UNL d   1       5.484  -0.499 -20.172  0.00  0.00    -0.083 SA
ATOM     24  C   UNL d   1       4.611  -1.991 -20.354  0.00  0.00     0.035 A 
ATOM     25  C   UNL d   1       4.406  -2.603 -19.147  0.00  0.00     0.008 A 
ATOM     26  C   UNL d   1       4.995  -1.898 -18.062  0.00  0.00     0.010 A 
ENDBRANCH  18  22
ENDBRANCH  15  16
ENDBRANCH  14  15
ENDBRANCH  13  14
ENDBRANCH  12  13
ENDBRANCH   9  12
BRANCH   1  27
ATOM     27  C   UNL d   1      11.284   8.148  -5.629  0.00  0.00     0.182 A 
ATOM     28  N   UNL d   1      11.625   9.254  -4.965  0.00  0.00    -0.219 NA
ATOM     29  C   UNL d   1      11.983   8.819  -3.699  0.00  0.00     0.121 A 
ATOM     30  C   UNL d   1      11.860   7.457  -3.673  0.00  0.00     0.099 A 
ATOM     31  C   UNL d   1      12.096   6.444  -2.616  0.00  0.00     0.060 C 
ATOM     32  O   UNL d   1      11.410   7.014  -4.885  0.00  0.00    -0.292 OA
ENDBRANCH   1  27
TORSDOF 7
