REMARK  8 active torsions:
REMARK  status: ('A' for Active; 'I' for Inactive)
REMARK    1  A    between atoms: C_6  and  C_7 
REMARK    2  A    between atoms: C_7  and  C_8 
REMARK    3  A    between atoms: C_8  and  N_9 
REMARK    4  A    between atoms: N_9  and  C_10 
REMARK    5  A    between atoms: N_9  and  C_18 
REMARK    6  A    between atoms: C_10  and  C_11 
REMARK    7  A    between atoms: C_11  and  C_12 
REMARK    8  A    between atoms: C_18  and  C_19 
ROOT
ATOM      1  N   UNL d   1       7.230   5.099 -11.453  0.00  0.00     0.138 N 
ENDROOT
BRANCH   1   2
ATOM      2  C   UNL d   1       8.497   5.707 -11.003  0.00  0.00     0.255 C 
BRANCH   2   3
ATOM      3  C   UNL d   1       8.752   5.514  -9.505  0.00  0.00     0.062 C 
BRANCH   3   4
ATOM      4  C   UNL d   1       9.612   6.646  -8.951  0.00  0.00    -0.018 A 
ATOM      5  C   UNL d   1       9.196   7.378  -7.821  0.00  0.00    -0.004 A 
ATOM      6  C   UNL d   1       9.975   8.439  -7.322  0.00  0.00     0.002 A 
ATOM      7  C   UNL d   1      11.185   8.786  -7.960  0.00  0.00     0.027 A 
ATOM      8  C   UNL d   1      11.599   8.088  -9.108  0.00  0.00     0.131 A 
ATOM      9  O   UNL d   1      12.765   8.388  -9.733  0.00  0.00    -0.190 OA
ATOM     10  C   UNL d   1      10.802   7.033  -9.607  0.00  0.00     0.023 A 
ENDBRANCH   3   4
ENDBRANCH   2   3
ENDBRANCH   1   2
BRANCH   1  11
ATOM     11  C   UNL d   1       7.436   4.054 -12.437  0.00  0.00     0.255 C 
BRANCH  11  12
ATOM     12  C   UNL d   1       6.156   3.193 -12.690  0.00  0.00     0.062 C 
BRANCH  12  13
ATOM     13  C   UNL d   1       6.369   2.102 -13.723  0.00  0.00    -0.020 A 
ATOM     14  C   UNL d   1       5.695   0.870 -13.594  0.00  0.00    -0.004 A 
ATOM     15  C   UNL d   1       5.904  -0.145 -14.547  0.00  0.00    -0.000 A 
ATOM     16  C   UNL d   1       6.784   0.071 -15.626  0.00  0.00    -0.000 A 
ATOM     17  C   UNL d   1       7.452   1.301 -15.763  0.00  0.00    -0.000 A 
ATOM     18  C   UNL d   1       7.240   2.313 -14.815  0.00  0.00    -0.004 A 
ENDBRANCH  12  13
ENDBRANCH  11  12
ENDBRANCH   1  11
BRANCH   1  19
ATOM     19  C   UNL d   1       6.261   6.081 -11.943  0.00  0.00     0.250 C 
BRANCH  19  20
ATOM     20  C   UNL d   1       6.920   7.201 -12.715  0.00  0.00     0.033 A 
ATOM     21  C   UNL d   1       6.058   7.990 -13.642  0.00  0.00     0.002 A 
ATOM     22  C   UNL d   1       6.489   8.616 -12.377  0.00  0.00     0.002 A 
ENDBRANCH  19  20
ENDBRANCH   1  19
TORSDOF 8
