REMARK  4 active torsions:
REMARK  status: ('A' for Active; 'I' for Inactive)
REMARK    1  A    between atoms: C_7  and  O_8 
REMARK    2  A    between atoms: O_8  and  C_9 
REMARK    3  A    between atoms: C_16  and  C_17 
REMARK    4  A    between atoms: C_17  and  N_18 
ROOT
ATOM      1  O   UNL d   1       3.925  -1.113 -14.441  0.00  0.00    -0.259 OA
ATOM      2  C   UNL d   1       4.770  -0.221 -14.437  0.00  0.00     0.298 A 
ATOM      3  O   UNL d   1       4.766   0.735 -13.444  0.00  0.00    -0.273 OA
ATOM      4  C   UNL d   1       5.635   1.799 -13.415  0.00  0.00     0.103 A 
ATOM      5  C   UNL d   1       5.460   2.810 -12.449  0.00  0.00     0.027 A 
ATOM      6  C   UNL d   1       6.346   3.902 -12.384  0.00  0.00     0.026 A 
ATOM      7  C   UNL d   1       7.434   3.996 -13.289  0.00  0.00     0.102 A 
ATOM      8  C   UNL d   1       7.580   2.998 -14.276  0.00  0.00     0.026 A 
ATOM      9  C   UNL d   1       6.679   1.919 -14.351  0.00  0.00     0.025 A 
ATOM     10  C   UNL d   1       6.764   0.883 -15.376  0.00  0.00     0.005 A 
ATOM     11  C   UNL d   1       5.857  -0.109 -15.455  0.00  0.00     0.074 A 
ENDROOT
BRANCH  11  12
ATOM     12  C   UNL d   1       5.933  -1.208 -16.501  0.00  0.00     0.282 C 
BRANCH  12  13
ATOM     13  N   UNL d   1       4.903  -1.103 -17.521  0.00  0.00     0.142 N 
ATOM     14  C   UNL d   1       4.971  -2.216 -18.463  0.00  0.00     0.251 C 
ATOM     15  C   UNL d   1       4.083  -1.747 -19.611  0.00  0.00     0.037 C 
ATOM     16  C   UNL d   1       4.123  -0.220 -19.541  0.00  0.00     0.037 C 
ATOM     17  C   UNL d   1       5.039   0.086 -18.358  0.00  0.00     0.251 C 
ENDBRANCH  12  13
ENDBRANCH  11  12
BRANCH   7  18
ATOM     18  O   UNL d   1       8.399   4.982 -13.256  0.00  0.00    -0.253 OA
BRANCH  18  19
ATOM     19  C   UNL d   1       8.369   5.961 -12.314  0.00  0.00     0.530 C 
ATOM     20  F   UNL d   1       9.434   6.782 -12.475  0.00  0.00    -0.144 F 
ATOM     21  F   UNL d   1       7.260   6.730 -12.436  0.00  0.00    -0.144 F 
ATOM     22  F   UNL d   1       8.450   5.459 -11.054  0.00  0.00    -0.144 F 
ENDBRANCH  18  19
ENDBRANCH   7  18
TORSDOF 4
