REMARK  8 active torsions:
REMARK  status: ('A' for Active; 'I' for Inactive)
REMARK    1  A    between atoms: C_2  and  C_5 
REMARK    2  A    between atoms: C_7  and  N_8 
REMARK    3  A    between atoms: N_11  and  C_12 
REMARK    4  A    between atoms: C_12  and  C_13 
REMARK    5  A    between atoms: C_13  and  C_14 
REMARK    6  A    between atoms: C_14  and  C_15 
REMARK    7  A    between atoms: C_15  and  N_16 
REMARK    8  A    between atoms: C_26  and  C_27 
ROOT
ATOM      1  N   UNL d   1       8.009   3.964 -13.642  0.00  0.00    -0.330 N 
ATOM      2  C   UNL d   1       6.842   4.575 -13.016  0.00  0.00     0.138 C 
ATOM      3  C   UNL d   1       7.102   4.865 -11.532  0.00  0.00     0.274 C 
ATOM      4  N   UNL d   1       8.316   5.658 -11.364  0.00  0.00     0.141 N 
ATOM      5  C   UNL d   1       9.446   4.909 -11.902  0.00  0.00     0.274 C 
ATOM      6  C   UNL d   1       9.271   4.638 -13.403  0.00  0.00     0.138 C 
ENDROOT
BRANCH   1   7
ATOM      7  C   UNL d   1       7.927   2.767 -14.367  0.00  0.00     0.143 A 
ATOM      8  N   UNL d   1       6.891   1.952 -14.088  0.00  0.00    -0.214 NA
ATOM      9  C   UNL d   1       6.791   0.799 -14.739  0.00  0.00     0.140 A 
ATOM     10  N   UNL d   1       7.625   0.396 -15.702  0.00  0.00    -0.227 NA
ATOM     11  C   UNL d   1       8.665   1.199 -16.018  0.00  0.00     0.157 A 
ATOM     12  C   UNL d   1       8.869   2.426 -15.350  0.00  0.00     0.060 A 
BRANCH   9  13
ATOM     13  C   UNL d   1       5.577  -0.092 -14.438  0.00  0.00     0.052 C 
ATOM     14  C   UNL d   1       4.722  -0.222 -15.700  0.00  0.00     0.008 C 
ATOM     15  C   UNL d   1       4.705   0.461 -13.299  0.00  0.00     0.008 C 
ATOM     16  C   UNL d   1       6.006  -1.471 -13.999  0.00  0.00     0.008 C 
ENDBRANCH   9  13
BRANCH  11  17
ATOM     17  C   UNL d   1       9.584   0.731 -17.139  0.00  0.00     0.435 C 
ATOM     18  F   UNL d   1      10.553   1.616 -17.375  0.00  0.00    -0.165 F 
ATOM     19  F   UNL d   1      10.149  -0.439 -16.829  0.00  0.00    -0.165 F 
ATOM     20  F   UNL d   1       8.874   0.582 -18.258  0.00  0.00    -0.165 F 
ENDBRANCH  11  17
ENDBRANCH   1   7
BRANCH   4  21
ATOM     21  C   UNL d   1       8.520   5.937  -9.939  0.00  0.00     0.251 C 
BRANCH  21  22
ATOM     22  C   UNL d   1       9.606   7.005  -9.692  0.00  0.00     0.037 C 
BRANCH  22  23
ATOM     23  C   UNL d   1       9.740   7.360  -8.204  0.00  0.00     0.027 C 
BRANCH  23  24
ATOM     24  C   UNL d   1      11.084   8.057  -7.890  0.00  0.00     0.111 C 
BRANCH  24  25
ATOM     25  N   UNL d   1      11.341   8.145  -6.440  0.00  0.00    -0.279 N 
ATOM     26  C   UNL d   1      11.512   9.343  -5.793  0.00  0.00     0.350 A 
ATOM     27  N   UNL d   1      11.777   9.323  -4.408  0.00  0.00    -0.191 NA
ATOM     28  O   UNL d   1      11.457  10.404  -6.405  0.00  0.00    -0.244 OA
ATOM     29  C   UNL d   1      11.861   8.216  -3.770  0.00  0.00     0.105 A 
ATOM     30  C   UNL d   1      11.700   6.910  -4.421  0.00  0.00     0.040 A 
ATOM     31  C   UNL d   1      11.452   6.931  -5.739  0.00  0.00     0.081 A 
ENDBRANCH  24  25
ENDBRANCH  23  24
ENDBRANCH  22  23
ENDBRANCH  21  22
ENDBRANCH   4  21
TORSDOF 8
