REMARK  0 active torsions:
REMARK  status: ('A' for Active; 'I' for Inactive)
ROOT
ATOM      1  C   UNL d   1       9.249  -1.206 -18.285  0.00  0.00     0.285 C 
ATOM      2  N   UNL d   1       9.867  -0.353 -17.279  0.00  0.00     0.140 N 
ATOM      3  C   UNL d   1       8.884   0.599 -16.759  0.00  0.00     0.255 C 
ATOM      4  C   UNL d   1       8.908   0.533 -15.223  0.00  0.00     0.061 C 
ATOM      5  C   UNL d   1       8.275   1.756 -14.584  0.00  0.00    -0.024 A 
ATOM      6  C   UNL d   1       6.888   1.738 -14.321  0.00  0.00    -0.004 A 
ATOM      7  C   UNL d   1       6.258   2.849 -13.724  0.00  0.00    -0.000 A 
ATOM      8  C   UNL d   1       7.013   3.989 -13.396  0.00  0.00    -0.000 A 
ATOM      9  C   UNL d   1       8.396   4.016 -13.660  0.00  0.00    -0.004 A 
ATOM     10  C   UNL d   1       9.041   2.908 -14.255  0.00  0.00    -0.021 A 
ATOM     11  C   UNL d   1      10.541   3.001 -14.525  0.00  0.00     0.059 C 
ATOM     12  C   UNL d   1      10.855   3.400 -15.937  0.00  0.00     0.008 A 
ATOM     13  S   UNL d   1      10.506   5.035 -16.442  0.00  0.00    -0.091 SA
ATOM     14  C   UNL d   1      11.107   4.726 -18.038  0.00  0.00     0.035 A 
ATOM     15  C   UNL d   1      11.551   3.438 -18.160  0.00  0.00     0.003 A 
ATOM     16  C   UNL d   1      11.409   2.664 -16.966  0.00  0.00    -0.017 A 
ATOM     17  C   UNL d   1      11.849   1.220 -16.918  0.00  0.00     0.062 C 
ATOM     18  C   UNL d   1      11.051   0.287 -17.863  0.00  0.00     0.255 C 
ENDROOT
TORSDOF 0
