REMARK  3 active torsions:
REMARK  status: ('A' for Active; 'I' for Inactive)
REMARK    1  A    between atoms: C_2  and  N_3 
REMARK    2  A    between atoms: N_3  and  C_4 
REMARK    3  A    between atoms: N_3  and  N_6 
ROOT
ATOM      1  N   UNL d   1       7.115   5.696 -12.439  0.00  0.00    -0.176 NA
ENDROOT
BRANCH   1   2
ATOM      2  C   UNL d   1       8.142   6.147 -11.501  0.00  0.00     0.093 C 
ATOM      3  C   UNL d   1       9.496   5.485 -11.763  0.00  0.00     0.020 C 
ENDBRANCH   1   2
BRANCH   1   4
ATOM      4  C   UNL d   1       5.872   6.447 -12.273  0.00  0.00     0.093 C 
ATOM      5  C   UNL d   1       5.986   7.920 -12.704  0.00  0.00     0.020 C 
ENDBRANCH   1   4
BRANCH   1   6
ATOM      6  N   UNL d   1       6.867   4.339 -12.325  0.00  0.00     0.032 NA
ATOM      7  O   UNL d   1       6.820   3.787 -13.405  0.00  0.00    -0.082 OA
ENDBRANCH   1   6
TORSDOF 3
