REMARK  5 active torsions:
REMARK  status: ('A' for Active; 'I' for Inactive)
REMARK    1  A    between atoms: C_2  and  C_3 
REMARK    2  A    between atoms: C_3  and  N_4 
REMARK    3  A    between atoms: N_4  and  C_5 
REMARK    4  A    between atoms: N_4  and  C_8 
REMARK    5  A    between atoms: C_5  and  C_6 
ROOT
ATOM      1  C   UNL d   1       6.798   3.873 -12.852  0.00  0.00     0.224 C 
ATOM      2  C   UNL d   1       5.650   3.456 -11.924  0.00  0.00     0.040 C 
ATOM      3  C   UNL d   1       5.437   1.974 -11.992  0.00  0.00     0.049 C 
ATOM      4  C   UNL d   1       5.544   1.356 -13.327  0.00  0.00     0.077 A 
ATOM      5  N   UNL d   1       5.106   0.146 -13.600  0.00  0.00    -0.170 NA
ATOM      6  N   UNL d   1       5.454  -0.043 -14.923  0.00  0.00    -0.229 N 
ATOM      7  C   UNL d   1       5.155  -1.109 -15.702  0.00  0.00     0.100 A 
ATOM      8  C   UNL d   1       5.530  -1.043 -17.035  0.00  0.00     0.021 A 
ATOM      9  C   UNL d   1       6.185   0.105 -17.586  0.00  0.00     0.003 A 
ATOM     10  C   UNL d   1       6.506   1.182 -16.783  0.00  0.00     0.019 A 
ATOM     11  C   UNL d   1       6.130   1.021 -15.447  0.00  0.00     0.080 A 
ATOM     12  C   UNL d   1       6.180   1.933 -14.422  0.00  0.00     0.013 A 
ATOM     13  C   UNL d   1       6.634   3.384 -14.319  0.00  0.00     0.062 C 
ENDROOT
BRANCH   1  14
ATOM     14  N   UNL d   1       7.170   5.297 -12.651  0.00  0.00     0.135 N 
BRANCH  14  15
ATOM     15  C   UNL d   1       7.797   5.521 -11.330  0.00  0.00     0.250 C 
BRANCH  15  16
ATOM     16  C   UNL d   1       9.107   4.757 -11.103  0.00  0.00     0.035 C 
ATOM     17  C   UNL d   1       9.325   4.483  -9.616  0.00  0.00     0.002 C 
ENDBRANCH  15  16
ENDBRANCH  14  15
BRANCH  14  18
ATOM     18  C   UNL d   1       5.978   6.163 -12.743  0.00  0.00     0.250 C 
BRANCH  18  19
ATOM     19  C   UNL d   1       6.305   7.680 -12.833  0.00  0.00     0.035 C 
ATOM     20  C   UNL d   1       5.133   8.516 -12.396  0.00  0.00     0.002 C 
ENDBRANCH  18  19
ENDBRANCH  14  18
ENDBRANCH   1  14
TORSDOF 5
