REMARK  5 active torsions:
REMARK  status: ('A' for Active; 'I' for Inactive)
REMARK    1  A    between atoms: C_2  and  C_3 
REMARK       I    between atoms: C_2  and  N_13 
REMARK    2  A    between atoms: N_16  and  C_17 
REMARK    3  A    between atoms: C_17  and  C_18 
REMARK    4  A    between atoms: C_18  and  O_19 
REMARK    5  A    between atoms: O_19  and  C_20 
ROOT
ATOM      1  O   UNL d   1      10.466   8.846 -10.797  0.00  0.00    -0.266 OA
ATOM      2  C   UNL d   1      10.235   7.877 -10.104  0.00  0.00     0.275 C 
ATOM      3  N   UNL d   1       9.690   6.756 -10.629  0.00  0.00    -0.311 N 
ATOM      4  C   UNL d   1       9.415   5.499  -9.928  0.00  0.00     0.140 C 
ATOM      5  C   UNL d   1       7.982   5.117 -10.149  0.00  0.00     0.274 C 
ATOM      6  N   UNL d   1       7.696   4.930 -11.571  0.00  0.00     0.144 N 
ATOM      7  C   UNL d   1       7.879   6.224 -12.227  0.00  0.00     0.274 C 
ATOM      8  C   UNL d   1       9.331   6.684 -12.062  0.00  0.00     0.140 C 
ENDROOT
BRANCH   2   9
ATOM      9  C   UNL d   1      10.557   7.976  -8.673  0.00  0.00     0.137 A 
ATOM     10  N   UNL d   1      11.126   6.871  -8.048  0.00  0.00    -0.241 NA
ATOM     11  C   UNL d   1      11.362   7.131  -6.722  0.00  0.00     0.082 A 
ATOM     12  C   UNL d   1      10.968   8.466  -6.491  0.00  0.00     0.030 A 
ATOM     13  C   UNL d   1      11.867   6.328  -5.716  0.00  0.00     0.019 A 
ATOM     14  C   UNL d   1      10.484   8.996  -7.737  0.00  0.00     0.026 A 
ATOM     15  C   UNL d   1      11.104   8.927  -5.166  0.00  0.00     0.059 A 
ATOM     16 CL   UNL d   1      10.704  10.525  -4.753  0.00  0.00    -0.082 Cl
ATOM     17  C   UNL d   1      11.580   8.106  -4.122  0.00  0.00     0.011 A 
ATOM     18  C   UNL d   1      11.912   6.776  -4.401  0.00  0.00     0.002 A 
ENDBRANCH   2   9
BRANCH   6  19
ATOM     19  C   UNL d   1       6.313   4.470 -11.682  0.00  0.00     0.283 C 
BRANCH  19  20
ATOM     20  C   UNL d   1       5.900   4.217 -13.136  0.00  0.00     0.184 C 
BRANCH  20  21
ATOM     21  O   UNL d   1       6.841   3.396 -13.855  0.00  0.00    -0.327 OA
BRANCH  21  22
ATOM     22  C   UNL d   1       6.561   2.062 -14.027  0.00  0.00     0.113 A 
ATOM     23  C   UNL d   1       5.532   1.377 -13.329  0.00  0.00     0.123 A 
ATOM     24  N   UNL d   1       5.193   0.106 -13.567  0.00  0.00    -0.240 NA
ATOM     25  C   UNL d   1       5.889  -0.570 -14.500  0.00  0.00     0.099 A 
ATOM     26  C   UNL d   1       6.986  -0.019 -15.193  0.00  0.00     0.023 A 
ATOM     27  C   UNL d   1       7.344   1.325 -14.939  0.00  0.00     0.027 A 
ENDBRANCH  21  22
ENDBRANCH  20  21
ENDBRANCH  19  20
ENDBRANCH   6  19
TORSDOF 5
