REMARK  11 active torsions:
REMARK  status: ('A' for Active; 'I' for Inactive)
REMARK    1  A    between atoms: C_2  and  C_3 
REMARK    2  A    between atoms: C_3  and  N_4 
REMARK    3  A    between atoms: N_4  and  C_5 
REMARK    4  A    between atoms: N_4  and  C_24 
REMARK    5  A    between atoms: C_5  and  C_6 
REMARK    6  A    between atoms: C_6  and  C_7 
REMARK    7  A    between atoms: C_7  and  C_8 
REMARK    8  A    between atoms: C_8  and  N_9 
REMARK       I    between atoms: N_9  and  C_10 
REMARK    9  A    between atoms: C_10  and  C_12 
REMARK   10  A    between atoms: C_15  and  C_16 
REMARK   11  A    between atoms: C_30  and  C_31 
ROOT
ATOM      1  C   UNL d   1       9.123   3.931 -13.912  0.00  0.00     0.037 C 
ENDROOT
BRANCH   1   2
ATOM      2  C   UNL d   1       9.380   2.425 -14.174  0.00  0.00     0.250 C 
BRANCH   2   3
ATOM      3  N   UNL d   1       8.666   1.902 -15.354  0.00  0.00     0.135 N 
BRANCH   3   4
ATOM      4  C   UNL d   1       7.217   1.868 -15.085  0.00  0.00     0.250 C 
BRANCH   4   5
ATOM      5  C   UNL d   1       6.812   0.576 -14.339  0.00  0.00     0.035 C 
ATOM      6  C   UNL d   1       5.334   0.658 -13.970  0.00  0.00     0.002 C 
ENDBRANCH   4   5
ENDBRANCH   3   4
BRANCH   3   7
ATOM      7  C   UNL d   1       9.089   2.521 -16.634  0.00  0.00     0.227 C 
ATOM      8  C   UNL d   1       8.294   2.057 -17.876  0.00  0.00     0.079 C 
ATOM      9  C   UNL d   1       8.610   0.643 -18.242  0.00  0.00     0.062 A 
ATOM     10  N   UNL d   1       9.854   0.114 -17.958  0.00  0.00    -0.255 N 
ATOM     11  C   UNL d   1       7.910  -0.356 -18.851  0.00  0.00     0.076 A 
ATOM     12  C   UNL d   1      10.938   0.771 -17.246  0.00  0.00     0.129 C 
ATOM     13  N   UNL d   1       9.981  -1.171 -18.378  0.00  0.00    -0.168 NA
ATOM     14  C   UNL d   1      10.599   2.254 -16.947  0.00  0.00     0.060 C 
ATOM     15  C   UNL d   1       8.806  -1.455 -18.928  0.00  0.00     0.125 A 
BRANCH  11  16
ATOM     16  C   UNL d   1       6.520  -0.318 -19.345  0.00  0.00     0.237 C 
ATOM     17  O   UNL d   1       5.795   0.678 -19.296  0.00  0.00    -0.283 OA
ENDBRANCH  11  16
ENDBRANCH   3   7
ENDBRANCH   2   3
ENDBRANCH   1   2
BRANCH   1  18
ATOM     18  C   UNL d   1       9.546   4.367 -12.511  0.00  0.00     0.029 C 
BRANCH  18  19
ATOM     19  C   UNL d   1       9.105   5.810 -12.225  0.00  0.00     0.129 C 
BRANCH  19  20
ATOM     20  N   UNL d   1       9.463   6.184 -10.870  0.00  0.00    -0.234 NA
ATOM     21  C   UNL d   1       9.839   7.423 -10.491  0.00  0.00     0.275 C 
ATOM     22  O   UNL d   1       9.864   8.383 -11.241  0.00  0.00    -0.266 OA
BRANCH  21  23
ATOM     23  C   UNL d   1      10.250   7.550  -9.057  0.00  0.00     0.058 A 
ATOM     24  C   UNL d   1       9.591   6.824  -8.046  0.00  0.00     0.005 A 
ATOM     25  C   UNL d   1       9.985   6.963  -6.705  0.00  0.00     0.000 A 
ATOM     26  C   UNL d   1      11.038   7.834  -6.349  0.00  0.00     0.000 A 
ATOM     27  C   UNL d   1      11.677   8.577  -7.364  0.00  0.00     0.000 A 
ATOM     28  C   UNL d   1      11.292   8.438  -8.712  0.00  0.00     0.005 A 
BRANCH  26  29
ATOM     29  C   UNL d   1      11.455   7.958  -4.941  0.00  0.00     0.000 A 
ATOM     30  C   UNL d   1      11.633   6.812  -4.137  0.00  0.00     0.000 A 
ATOM     31  C   UNL d   1      12.034   6.923  -2.792  0.00  0.00     0.000 A 
ATOM     32  C   UNL d   1      12.259   8.194  -2.236  0.00  0.00     0.000 A 
ATOM     33  C   UNL d   1      12.085   9.342  -3.026  0.00  0.00     0.000 A 
ATOM     34  C   UNL d   1      11.689   9.227  -4.371  0.00  0.00     0.000 A 
ENDBRANCH  26  29
ENDBRANCH  21  23
ENDBRANCH  19  20
ENDBRANCH  18  19
ENDBRANCH   1  18
TORSDOF 11
