REMARK  0 active torsions:
REMARK  status: ('A' for Active; 'I' for Inactive)
ROOT
ATOM      1  C   UNL d   1       9.464   2.612 -18.748  0.00  0.00     0.286 C 
ATOM      2  N   UNL d   1       9.617   2.821 -17.316  0.00  0.00     0.143 N 
ATOM      3  C   UNL d   1       9.729   4.252 -17.035  0.00  0.00     0.274 C 
ATOM      4  C   UNL d   1       9.934   4.460 -15.525  0.00  0.00     0.137 C 
ATOM      5  N   UNL d   1       8.822   3.886 -14.768  0.00  0.00    -0.343 N 
ATOM      6  C   UNL d   1       8.607   4.372 -13.464  0.00  0.00     0.053 A 
ATOM      7  C   UNL d   1       9.673   4.861 -12.675  0.00  0.00     0.017 A 
ATOM      8  C   UNL d   1       9.435   5.393 -11.393  0.00  0.00     0.002 A 
ATOM      9  C   UNL d   1       8.129   5.429 -10.877  0.00  0.00    -0.000 A 
ATOM     10  C   UNL d   1       7.063   4.942 -11.650  0.00  0.00    -0.003 A 
ATOM     11  C   UNL d   1       7.297   4.416 -12.936  0.00  0.00    -0.002 A 
ATOM     12  C   UNL d   1       6.141   3.855 -13.728  0.00  0.00     0.054 C 
ATOM     13  C   UNL d   1       6.279   2.359 -13.818  0.00  0.00    -0.020 A 
ATOM     14  C   UNL d   1       5.266   1.587 -13.236  0.00  0.00    -0.004 A 
ATOM     15  C   UNL d   1       5.333   0.189 -13.270  0.00  0.00    -0.000 A 
ATOM     16  C   UNL d   1       6.467  -0.445 -13.804  0.00  0.00    -0.000 A 
ATOM     17  C   UNL d   1       7.494   0.326 -14.376  0.00  0.00    -0.003 A 
ATOM     18  C   UNL d   1       7.409   1.735 -14.411  0.00  0.00    -0.004 A 
ATOM     19  C   UNL d   1       8.574   2.470 -15.082  0.00  0.00     0.137 C 
ATOM     20  C   UNL d   1       8.444   2.292 -16.616  0.00  0.00     0.277 C 
ENDROOT
TORSDOF 0
