REMARK  6 active torsions:
REMARK  status: ('A' for Active; 'I' for Inactive)
REMARK    1  A    between atoms: C_4  and  C_5 
REMARK    2  A    between atoms: C_5  and  N_6 
REMARK    3  A    between atoms: N_6  and  C_8 
REMARK    4  A    between atoms: C_8  and  C_9 
REMARK    5  A    between atoms: C_9  and  N_10 
REMARK    6  A    between atoms: N_13  and  C_14 
ROOT
ATOM      1  N   UNL d   1       9.434   6.873 -10.960  0.00  0.00    -0.298 N 
ATOM      2  C   UNL d   1       9.636   8.270 -11.250  0.00  0.00     0.131 C 
ATOM      3  C   UNL d   1      10.166   8.798  -9.925  0.00  0.00     0.135 C 
ATOM      4  N   UNL d   1      10.194   7.622  -9.059  0.00  0.00    -0.280 N 
ATOM      5  C   UNL d   1       9.670   6.541  -9.681  0.00  0.00     0.328 C 
ATOM      6  O   UNL d   1       9.479   5.425  -9.206  0.00  0.00    -0.247 OA
ENDROOT
BRANCH   1   7
ATOM      7  C   UNL d   1       8.965   5.961 -11.980  0.00  0.00     0.141 C 
BRANCH   7   8
ATOM      8  C   UNL d   1       7.428   5.863 -11.935  0.00  0.00     0.275 C 
BRANCH   8   9
ATOM      9  N   UNL d   1       6.926   4.981 -12.986  0.00  0.00     0.148 N 
ATOM     10  C   UNL d   1       5.465   5.059 -12.992  0.00  0.00     0.286 C 
BRANCH   9  11
ATOM     11  C   UNL d   1       7.317   3.590 -12.803  0.00  0.00     0.303 C 
BRANCH  11  12
ATOM     12  C   UNL d   1       7.168   2.756 -14.029  0.00  0.00     0.137 A 
ATOM     13  C   UNL d   1       6.258   1.813 -14.388  0.00  0.00     0.041 A 
ATOM     14  C   UNL d   1       6.763   1.325 -15.622  0.00  0.00     0.088 A 
ATOM     15  C   UNL d   1       6.164   0.283 -16.510  0.00  0.00     0.055 C 
ATOM     16  N   UNL d   1       7.898   1.915 -15.967  0.00  0.00    -0.131 NA
ATOM     17  O   UNL d   1       8.173   2.819 -14.936  0.00  0.00    -0.214 OA
ENDBRANCH  11  12
ENDBRANCH   9  11
ENDBRANCH   8   9
ENDBRANCH   7   8
ENDBRANCH   1   7
BRANCH   4  18
ATOM     18  C   UNL d   1      10.581   7.667  -7.683  0.00  0.00     0.065 A 
ATOM     19  C   UNL d   1      10.474   8.879  -6.958  0.00  0.00     0.029 A 
ATOM     20  C   UNL d   1      10.867   8.927  -5.608  0.00  0.00     0.059 A 
ATOM     21  C   UNL d   1      11.367   7.797  -4.944  0.00  0.00     0.011 A 
ATOM     22 CL   UNL d   1      10.684  10.386  -4.737  0.00  0.00    -0.082 Cl
ATOM     23  C   UNL d   1      11.464   6.596  -5.657  0.00  0.00     0.002 A 
ATOM     24  C   UNL d   1      11.111   6.542  -7.012  0.00  0.00     0.017 A 
ENDBRANCH   4  18
TORSDOF 6
