REMARK  4 active torsions:
REMARK  status: ('A' for Active; 'I' for Inactive)
REMARK    1  A    between atoms: C_7  and  N_8 
REMARK    2  A    between atoms: N_11  and  C_12 
REMARK    3  A    between atoms: C_12  and  C_13 
REMARK    4  A    between atoms: N_16  and  C_17 
ROOT
ATOM      1  N   UNL d   1       7.695   5.111 -12.289  0.00  0.00    -0.343 N 
ATOM      2  C   UNL d   1       7.668   5.060 -10.844  0.00  0.00     0.137 C 
ATOM      3  C   UNL d   1       9.007   5.507 -10.231  0.00  0.00     0.275 C 
ATOM      4  N   UNL d   1       9.363   6.844 -10.722  0.00  0.00     0.146 N 
ATOM      5  C   UNL d   1       9.453   6.789 -12.184  0.00  0.00     0.275 C 
ATOM      6  C   UNL d   1       8.125   6.380 -12.839  0.00  0.00     0.137 C 
ENDROOT
BRANCH   4   7
ATOM      7  C   UNL d   1      10.601   7.320 -10.111  0.00  0.00     0.280 C 
BRANCH   7   8
ATOM      8  C   UNL d   1      10.461   7.723  -8.666  0.00  0.00     0.051 A 
ATOM      9  C   UNL d   1      11.263   7.405  -7.605  0.00  0.00     0.100 A 
ATOM     10  N   UNL d   1      10.777   8.056  -6.494  0.00  0.00    -0.229 N 
ATOM     11  N   UNL d   1       9.682   8.782  -6.791  0.00  0.00    -0.164 NA
ATOM     12  C   UNL d   1       9.489   8.585  -8.086  0.00  0.00     0.120 A 
BRANCH  10  13
ATOM     13  C   UNL d   1      11.288   8.046  -5.182  0.00  0.00     0.083 A 
ATOM     14  C   UNL d   1      11.618   6.817  -4.573  0.00  0.00     0.019 A 
ATOM     15  C   UNL d   1      12.115   6.789  -3.255  0.00  0.00     0.002 A 
ATOM     16  C   UNL d   1      12.284   7.991  -2.546  0.00  0.00     0.000 A 
ATOM     17  C   UNL d   1      11.961   9.219  -3.152  0.00  0.00     0.002 A 
ATOM     18  C   UNL d   1      11.458   9.250  -4.468  0.00  0.00     0.019 A 
ENDBRANCH  10  13
ENDBRANCH   7   8
ENDBRANCH   4   7
BRANCH   1  19
ATOM     19  C   UNL d   1       7.379   3.997 -13.081  0.00  0.00     0.084 A 
ATOM     20  C   UNL d   1       8.261   3.564 -14.096  0.00  0.00     0.155 A 
ATOM     21  F   UNL d   1       9.431   4.213 -14.327  0.00  0.00    -0.203 F 
ATOM     22  C   UNL d   1       7.946   2.435 -14.875  0.00  0.00     0.031 A 
ATOM     23  C   UNL d   1       6.751   1.729 -14.655  0.00  0.00     0.002 A 
ATOM     24  C   UNL d   1       5.874   2.144 -13.636  0.00  0.00     0.002 A 
ATOM     25  C   UNL d   1       6.183   3.279 -12.854  0.00  0.00     0.019 A 
ENDBRANCH   1  19
TORSDOF 4
