REMARK  6 active torsions:
REMARK  status: ('A' for Active; 'I' for Inactive)
REMARK    1  A    between atoms: N_12  and  C_13 
REMARK    2  A    between atoms: C_13  and  C_14 
REMARK    3  A    between atoms: C_14  and  C_15 
REMARK    4  A    between atoms: C_15  and  C_16 
REMARK    5  A    between atoms: C_16  and  N_17 
REMARK    6  A    between atoms: N_20  and  C_21 
ROOT
ATOM      1  C   UNL d   1       7.770   4.368 -13.133  0.00  0.00     0.251 C 
ENDROOT
BRANCH   1   2
ATOM      2  C   UNL d   1       6.474   3.578 -12.870  0.00  0.00     0.037 C 
BRANCH   2   3
ATOM      3  C   UNL d   1       6.075   2.719 -14.061  0.00  0.00     0.027 C 
BRANCH   3   4
ATOM      4  C   UNL d   1       7.122   1.668 -14.498  0.00  0.00     0.112 C 
BRANCH   4   5
ATOM      5  N   UNL d   1       6.602   0.773 -15.540  0.00  0.00    -0.264 N 
ATOM      6  C   UNL d   1       5.795  -0.286 -15.273  0.00  0.00     0.263 A 
ATOM      7  O   UNL d   1       5.363  -0.658 -14.178  0.00  0.00    -0.267 OA
ATOM      8  C   UNL d   1       5.506  -0.928 -16.579  0.00  0.00     0.061 A 
ATOM      9  C   UNL d   1       6.152  -0.203 -17.547  0.00  0.00     0.063 A 
ATOM     10  C   UNL d   1       4.753  -2.074 -16.881  0.00  0.00     0.007 A 
ATOM     11  C   UNL d   1       6.102  -0.556 -18.910  0.00  0.00     0.035 A 
ATOM     12  C   UNL d   1       6.857   0.913 -16.872  0.00  0.00     0.263 A 
ATOM     13  C   UNL d   1       5.337  -1.699 -19.249  0.00  0.00     0.140 A 
ATOM     14  C   UNL d   1       4.668  -2.445 -18.246  0.00  0.00     0.030 A 
ATOM     15  F   UNL d   1       5.259  -2.088 -20.544  0.00  0.00    -0.204 F 
ATOM     16  O   UNL d   1       7.516   1.782 -17.442  0.00  0.00    -0.267 OA
ENDBRANCH   4   5
ENDBRANCH   3   4
ENDBRANCH   2   3
ENDBRANCH   1   2
BRANCH   1  17
ATOM     17  N   UNL d   1       7.904   5.415 -12.137  0.00  0.00     0.141 N 
ATOM     18  C   UNL d   1       8.309   4.787 -10.873  0.00  0.00     0.274 C 
ATOM     19  C   UNL d   1       8.515   5.821  -9.775  0.00  0.00     0.137 C 
ATOM     20  N   UNL d   1       9.445   6.852 -10.233  0.00  0.00    -0.344 N 
ATOM     21  C   UNL d   1       9.152   7.467 -11.544  0.00  0.00     0.137 C 
ATOM     22  C   UNL d   1       8.942   6.353 -12.580  0.00  0.00     0.274 C 
BRANCH  20  23
ATOM     23  C   UNL d   1      10.400   7.397  -9.352  0.00  0.00     0.057 C 
ATOM     24  C   UNL d   1      10.361   7.296  -7.920  0.00  0.00     0.022 C 
ATOM     25  C   UNL d   1      11.507   7.818  -7.208  0.00  0.00     0.031 C 
ATOM     26  C   UNL d   1       9.341   6.823  -6.995  0.00  0.00     0.009 C 
ATOM     27  C   UNL d   1      12.590   8.423  -7.854  0.00  0.00     0.007 C 
ATOM     28  S   UNL d   1      11.383   7.530  -5.482  0.00  0.00    -0.086 SA
ATOM     29  C   UNL d   1      12.618   8.415  -9.248  0.00  0.00     0.002 C 
ATOM     30  C   UNL d   1      11.487   8.048  -9.959  0.00  0.00     0.017 C 
ATOM     31  C   UNL d   1       9.839   6.790  -5.721  0.00  0.00     0.035 C 
ENDBRANCH  20  23
ENDBRANCH   1  17
TORSDOF 6
