REMARK  7 active torsions:
REMARK  status: ('A' for Active; 'I' for Inactive)
REMARK    1  A    between atoms: C_2  and  C_3 
REMARK       I    between atoms: C_2  and  N_11 
REMARK    2  A    between atoms: C_14  and  C_16 
REMARK    3  A    between atoms: C_16  and  N_17 
REMARK    4  A    between atoms: N_17  and  C_18 
REMARK    5  A    between atoms: C_18  and  C_19 
REMARK    6  A    between atoms: C_19  and  O_20 
REMARK    7  A    between atoms: O_20  and  C_21 
ROOT
ATOM      1  O   UNL d   1       9.026   0.951 -14.874  0.00  0.00    -0.267 OA
ATOM      2  C   UNL d   1       7.953   1.511 -14.583  0.00  0.00     0.257 C 
ATOM      3  N   UNL d   1       7.873   2.779 -14.135  0.00  0.00    -0.317 N 
ATOM      4  C   UNL d   1       9.077   3.636 -14.035  0.00  0.00     0.107 C 
ATOM      5  C   UNL d   1       9.232   4.195 -12.615  0.00  0.00     0.059 C 
ATOM      6  C   UNL d   1       7.951   4.920 -12.151  0.00  0.00     0.172 C 
ATOM      7  F   UNL d   1       7.772   6.027 -12.903  0.00  0.00    -0.238 F 
ATOM      8  C   UNL d   1       6.713   4.033 -12.340  0.00  0.00     0.059 C 
ATOM      9  C   UNL d   1       6.617   3.499 -13.781  0.00  0.00     0.107 C 
ENDROOT
BRANCH   6  10
ATOM     10  C   UNL d   1       8.076   5.354 -10.688  0.00  0.00     0.323 C 
BRANCH  10  11
ATOM     11  N   UNL d   1       9.081   6.394 -10.543  0.00  0.00     0.345 N 
BRANCH  11  12
ATOM     12  C   UNL d   1       9.784   6.256  -9.280  0.00  0.00     0.323 C 
BRANCH  12  13
ATOM     13  C   UNL d   1       8.872   6.680  -8.114  0.00  0.00     0.187 C 
BRANCH  13  14
ATOM     14  O   UNL d   1       9.537   6.426  -6.885  0.00  0.00    -0.329 OA
BRANCH  14  15
ATOM     15  C   UNL d   1      10.326   7.389  -6.313  0.00  0.00     0.094 A 
ATOM     16  C   UNL d   1      10.427   8.730  -6.773  0.00  0.00     0.024 A 
ATOM     17  C   UNL d   1      11.223   9.658  -6.085  0.00  0.00     0.002 A 
ATOM     18  C   UNL d   1      11.940   9.265  -4.938  0.00  0.00     0.000 A 
ATOM     19  C   UNL d   1      11.857   7.940  -4.473  0.00  0.00     0.002 A 
ATOM     20  C   UNL d   1      11.058   7.011  -5.162  0.00  0.00     0.024 A 
ENDBRANCH  14  15
ENDBRANCH  13  14
ENDBRANCH  12  13
ENDBRANCH  11  12
ENDBRANCH  10  11
ENDBRANCH   6  10
BRANCH   2  21
ATOM     21  C   UNL d   1       6.683   0.748 -14.815  0.00  0.00     0.057 A 
ATOM     22  C   UNL d   1       6.418   0.174 -16.074  0.00  0.00     0.018 A 
ATOM     23  C   UNL d   1       5.209  -0.506 -16.321  0.00  0.00     0.085 A 
ATOM     24  C   UNL d   1       4.252  -0.624 -15.296  0.00  0.00     0.151 A 
ATOM     25 CL   UNL d   1       4.871  -1.149 -17.887  0.00  0.00    -0.080 Cl
ATOM     26  C   UNL d   1       4.532  -0.059 -14.020  0.00  0.00     0.031 A 
ATOM     27  F   UNL d   1       3.063  -1.214 -15.527  0.00  0.00    -0.203 F 
ATOM     28  C   UNL d   1       5.725   0.578 -13.773  0.00  0.00     0.007 A 
ENDBRANCH   2  21
TORSDOF 7
