REMARK  6 active torsions:
REMARK  status: ('A' for Active; 'I' for Inactive)
REMARK    1  A    between atoms: O_2  and  C_3 
REMARK    2  A    between atoms: C_6  and  O_7 
REMARK    3  A    between atoms: O_7  and  C_8 
REMARK    4  A    between atoms: C_8  and  C_9 
REMARK    5  A    between atoms: C_9  and  N_10 
REMARK       I    between atoms: N_13  and  C_14 
REMARK    6  A    between atoms: C_14  and  C_16 
ROOT
ATOM      1  N   UNL d   1       8.516   5.966 -12.043  0.00  0.00     0.144 N 
ATOM      2  C   UNL d   1       9.188   5.441 -10.861  0.00  0.00     0.274 C 
ATOM      3  C   UNL d   1       9.163   6.464  -9.747  0.00  0.00     0.140 C 
ATOM      4  N   UNL d   1       9.881   7.676 -10.161  0.00  0.00    -0.311 N 
ATOM      5  C   UNL d   1      10.865   8.293  -9.486  0.00  0.00     0.275 C 
ATOM      6  O   UNL d   1      11.480   9.250  -9.962  0.00  0.00    -0.266 OA
ATOM      7  C   UNL d   1       9.341   8.242 -11.401  0.00  0.00     0.140 C 
ATOM      8  C   UNL d   1       9.229   7.160 -12.467  0.00  0.00     0.274 C 
ENDROOT
BRANCH   5   9
ATOM      9  C   UNL d   1      11.077   7.972  -8.062  0.00  0.00     0.137 A 
ATOM     10  N   UNL d   1      11.313   9.040  -7.202  0.00  0.00    -0.241 NA
ATOM     11  C   UNL d   1      11.475   8.613  -5.899  0.00  0.00     0.082 A 
ATOM     12  C   UNL d   1      11.340   7.207  -5.975  0.00  0.00     0.019 A 
ATOM     13  C   UNL d   1      11.772   9.252  -4.683  0.00  0.00     0.030 A 
ATOM     14  C   UNL d   1      11.172   6.810  -7.322  0.00  0.00     0.025 A 
ATOM     15  C   UNL d   1      11.459   6.490  -4.773  0.00  0.00     0.002 A 
ATOM     16  C   UNL d   1      11.776   7.081  -3.559  0.00  0.00     0.011 A 
ATOM     17  C   UNL d   1      11.941   8.469  -3.516  0.00  0.00     0.059 A 
ATOM     18 CL   UNL d   1      12.309   9.178  -2.008  0.00  0.00    -0.082 Cl
ENDBRANCH   5   9
BRANCH   1  19
ATOM     19  C   UNL d   1       8.459   5.032 -13.175  0.00  0.00     0.283 C 
BRANCH  19  20
ATOM     20  C   UNL d   1       8.089   3.633 -12.698  0.00  0.00     0.184 C 
BRANCH  20  21
ATOM     21  O   UNL d   1       7.557   2.858 -13.746  0.00  0.00    -0.329 OA
BRANCH  21  22
ATOM     22  C   UNL d   1       8.400   2.129 -14.542  0.00  0.00     0.094 A 
ATOM     23  C   UNL d   1       7.756   1.325 -15.480  0.00  0.00     0.026 A 
ATOM     24  C   UNL d   1       8.491   0.539 -16.373  0.00  0.00     0.026 A 
ATOM     25  C   UNL d   1       9.913   0.540 -16.335  0.00  0.00     0.094 A 
ATOM     26  C   UNL d   1      10.563   1.342 -15.377  0.00  0.00     0.026 A 
ATOM     27  C   UNL d   1       9.820   2.139 -14.479  0.00  0.00     0.026 A 
BRANCH  25  28
ATOM     28  O   UNL d   1      10.700  -0.201 -17.192  0.00  0.00    -0.328 OA
ATOM     29  C   UNL d   1      10.023  -0.975 -18.176  0.00  0.00     0.181 C 
ENDBRANCH  25  28
ENDBRANCH  21  22
ENDBRANCH  20  21
ENDBRANCH  19  20
ENDBRANCH   1  19
TORSDOF 6
