REMARK  2 active torsions:
REMARK  status: ('A' for Active; 'I' for Inactive)
REMARK       I    between atoms: C_2  and  N_3 
REMARK    1  A    between atoms: C_2  and  C_11 
REMARK    2  A    between atoms: N_3  and  C_4 
ROOT
ATOM      1  O   UNL d   1      10.838   5.624  -7.817  0.00  0.00    -0.265 OA
ATOM      2  C   UNL d   1      10.126   6.553  -8.123  0.00  0.00     0.281 C 
ATOM      3  N   UNL d   1      10.094   7.683  -7.401  0.00  0.00    -0.208 NA
ENDROOT
BRANCH   2   4
ATOM      4  C   UNL d   1       9.439   6.484  -9.442  0.00  0.00     0.084 A 
ATOM      5  C   UNL d   1       8.639   5.360  -9.817  0.00  0.00     0.142 A 
ATOM      6  C   UNL d   1       8.008   5.375 -11.099  0.00  0.00     0.061 A 
ATOM      7  O   UNL d   1       8.423   4.334  -8.947  0.00  0.00    -0.190 OA
ATOM      8  C   UNL d   1       8.221   6.465 -11.949  0.00  0.00     0.015 A 
ATOM      9 BR   UNL d   1       6.762   4.046 -11.709  0.00  0.00    -0.047 Br
ATOM     10  C   UNL d   1       9.049   7.513 -11.564  0.00  0.00     0.035 A 
ATOM     11  C   UNL d   1       9.688   7.522 -10.334  0.00  0.00     0.014 A 
ATOM     12 BR   UNL d   1       8.756   9.143 -12.427  0.00  0.00    -0.049 Br
ENDBRANCH   2   4
BRANCH   3  13
ATOM     13  C   UNL d   1      10.722   7.863  -6.121  0.00  0.00     0.085 A 
ATOM     14  C   UNL d   1      10.977   9.172  -5.682  0.00  0.00     0.020 A 
ATOM     15  C   UNL d   1      11.536   9.392  -4.408  0.00  0.00     0.008 A 
ATOM     16  C   UNL d   1      11.878   8.316  -3.569  0.00  0.00     0.035 A 
ATOM     17  C   UNL d   1      11.642   7.004  -3.991  0.00  0.00     0.008 A 
ATOM     18 BR   UNL d   1      12.622   8.600  -1.848  0.00  0.00    -0.049 Br
ATOM     19  C   UNL d   1      11.063   6.793  -5.247  0.00  0.00     0.020 A 
ENDBRANCH   3  13
TORSDOF 2
