REMARK  3 active torsions:
REMARK  status: ('A' for Active; 'I' for Inactive)
REMARK    1  A    between atoms: C_2  and  C_4 
REMARK    2  A    between atoms: C_4  and  C_5 
REMARK    3  A    between atoms: C_8  and  C_9 
ROOT
ATOM      1  C   UNL d   1       9.985   7.757  -9.516  0.00  0.00    -0.011 A 
ATOM      2  C   UNL d   1      11.027   8.645  -9.158  0.00  0.00    -0.004 A 
ATOM      3  C   UNL d   1      11.479   8.725  -7.824  0.00  0.00    -0.000 A 
ATOM      4  C   UNL d   1      10.903   7.922  -6.815  0.00  0.00    -0.000 A 
ATOM      5  C   UNL d   1       9.854   7.042  -7.183  0.00  0.00    -0.000 A 
ATOM      6  C   UNL d   1       9.402   6.955  -8.499  0.00  0.00    -0.004 A 
ENDROOT
BRANCH   4   7
ATOM      7  C   UNL d   1      11.359   7.973  -5.417  0.00  0.00    -0.000 A 
ATOM      8  C   UNL d   1      11.689   9.210  -4.816  0.00  0.00    -0.000 A 
ATOM      9  C   UNL d   1      12.126   9.255  -3.479  0.00  0.00     0.000 A 
ATOM     10  C   UNL d   1      12.245   8.072  -2.729  0.00  0.00     0.000 A 
ATOM     11  C   UNL d   1      11.905   6.836  -3.313  0.00  0.00     0.000 A 
ATOM     12  C   UNL d   1      11.458   6.798  -4.648  0.00  0.00    -0.000 A 
ENDBRANCH   4   7
BRANCH   1  13
ATOM     13  C   UNL d   1       9.495   7.708 -10.964  0.00  0.00     0.124 C 
BRANCH  13  14
ATOM     14  C   UNL d   1       9.055   6.301 -11.412  0.00  0.00     0.190 C 
ATOM     15  O   UNL d   1       9.766   5.560 -12.098  0.00  0.00    -0.647 OA
ATOM     16  O   UNL d   1       7.813   5.986 -10.971  0.00  0.00    -0.647 OA
ENDBRANCH  13  14
ENDBRANCH   1  13
TORSDOF 3
