REMARK  7 active torsions:
REMARK  status: ('A' for Active; 'I' for Inactive)
REMARK    1  A    between atoms: C_9  and  O_10 
REMARK    2  A    between atoms: O_10  and  C_11 
REMARK    3  A    between atoms: C_11  and  C_12 
REMARK    4  A    between atoms: C_12  and  C_13 
REMARK    5  A    between atoms: C_13  and  C_14 
REMARK    6  A    between atoms: C_14  and  N_15 
REMARK    7  A    between atoms: N_18  and  C_19 
ROOT
ATOM      1  C   UNL d   1       9.129   6.734 -11.382  0.00  0.00     0.038 C 
ENDROOT
BRANCH   1   2
ATOM      2  C   UNL d   1      10.092   7.279 -10.324  0.00  0.00     0.035 C 
BRANCH   2   3
ATOM      3  C   UNL d   1       9.692   8.688  -9.827  0.00  0.00     0.149 C 
BRANCH   3   4
ATOM      4  O   UNL d   1      10.662   9.214  -8.933  0.00  0.00    -0.331 OA
BRANCH   4   5
ATOM      5  C   UNL d   1      10.716   8.655  -7.675  0.00  0.00     0.094 C 
ATOM      6  C   UNL d   1       9.921   7.549  -7.320  0.00  0.00     0.024 C 
ATOM      7  C   UNL d   1      10.136   6.868  -6.125  0.00  0.00    -0.002 C 
ATOM      8  C   UNL d   1      11.032   7.378  -5.179  0.00  0.00    -0.015 C 
ATOM      9  C   UNL d   1      11.205   6.698  -3.832  0.00  0.00     0.053 C 
ATOM     10  C   UNL d   1      11.716   8.563  -5.445  0.00  0.00     0.056 C 
ATOM     11  C   UNL d   1      11.571   7.697  -2.709  0.00  0.00     0.134 C 
ATOM     12  N   UNL d   1      12.540   8.666  -3.163  0.00  0.00    -0.234 NA
ATOM     13  C   UNL d   1      12.627   9.138  -4.424  0.00  0.00     0.275 C 
ATOM     14  O   UNL d   1      13.451   9.962  -4.769  0.00  0.00    -0.266 OA
ATOM     15  C   UNL d   1      11.623   9.183  -6.727  0.00  0.00     0.029 C 
ENDBRANCH   4   5
ENDBRANCH   3   4
ENDBRANCH   2   3
ENDBRANCH   1   2
BRANCH   1  16
ATOM     16  C   UNL d   1       9.454   5.267 -11.700  0.00  0.00     0.251 C 
BRANCH  16  17
ATOM     17  N   UNL d   1       8.687   4.771 -12.829  0.00  0.00     0.141 N 
ATOM     18  C   UNL d   1       9.310   3.518 -13.271  0.00  0.00     0.274 C 
ATOM     19  C   UNL d   1       8.553   2.971 -14.486  0.00  0.00     0.137 C 
ATOM     20  N   UNL d   1       7.140   2.825 -14.180  0.00  0.00    -0.344 N 
ATOM     21  C   UNL d   1       6.493   3.996 -13.610  0.00  0.00     0.137 C 
ATOM     22  C   UNL d   1       7.301   4.513 -12.413  0.00  0.00     0.274 C 
BRANCH  20  23
ATOM     23  C   UNL d   1       6.436   1.628 -14.423  0.00  0.00     0.068 A 
ATOM     24  C   UNL d   1       6.580   0.891 -15.631  0.00  0.00     0.084 A 
ATOM     25  C   UNL d   1       5.845  -0.300 -15.816  0.00  0.00     0.070 A 
ATOM     26 CL   UNL d   1       7.545   1.449 -16.957  0.00  0.00    -0.080 Cl
ATOM     27  C   UNL d   1       4.962  -0.752 -14.824  0.00  0.00     0.012 A 
ATOM     28 CL   UNL d   1       5.965  -1.192 -17.293  0.00  0.00    -0.081 Cl
ATOM     29  C   UNL d   1       4.792  -0.007 -13.649  0.00  0.00     0.002 A 
ATOM     30  C   UNL d   1       5.529   1.171 -13.441  0.00  0.00     0.018 A 
ENDBRANCH  20  23
ENDBRANCH  16  17
ENDBRANCH   1  16
TORSDOF 7
