REMARK  8 active torsions:
REMARK  status: ('A' for Active; 'I' for Inactive)
REMARK    1  A    between atoms: N_12  and  C_13 
REMARK    2  A    between atoms: C_13  and  C_14 
REMARK    3  A    between atoms: C_14  and  C_15 
REMARK    4  A    between atoms: C_15  and  C_16 
REMARK    5  A    between atoms: C_16  and  C_17 
REMARK    6  A    between atoms: C_17  and  C_18 
REMARK    7  A    between atoms: C_18  and  N_19 
REMARK    8  A    between atoms: N_22  and  C_23 
ROOT
ATOM      1  C   UNL d   1       7.313   4.568 -13.725  0.00  0.00     0.002 C 
ENDROOT
BRANCH   1   2
ATOM      2  C   UNL d   1       6.884   3.089 -13.721  0.00  0.00     0.002 C 
BRANCH   2   3
ATOM      3  C   UNL d   1       7.983   2.141 -14.250  0.00  0.00     0.025 C 
BRANCH   3   4
ATOM      4  C   UNL d   1       7.554   0.674 -14.242  0.00  0.00     0.122 C 
BRANCH   4   5
ATOM      5  N   UNL d   1       6.656   0.392 -15.368  0.00  0.00    -0.221 N 
ATOM      6  C   UNL d   1       5.524  -0.429 -15.225  0.00  0.00     0.271 A 
ATOM      7  O   UNL d   1       4.995  -0.755 -14.162  0.00  0.00    -0.266 OA
ATOM      8  C   UNL d   1       5.059  -0.841 -16.584  0.00  0.00     0.069 A 
ATOM      9  C   UNL d   1       5.858  -0.387 -17.633  0.00  0.00     0.108 A 
ATOM     10  C   UNL d   1       3.917  -1.615 -16.861  0.00  0.00     0.005 A 
ATOM     11  C   UNL d   1       5.574  -0.648 -18.980  0.00  0.00     0.013 A 
ATOM     12  S   UNL d   1       7.193   0.570 -17.007  0.00  0.00     0.270 S 
ATOM     13  C   UNL d   1       4.428  -1.424 -19.262  0.00  0.00     0.001 A 
ATOM     14  C   UNL d   1       3.615  -1.909 -18.210  0.00  0.00     0.000 A 
ATOM     15  O   UNL d   1       8.462  -0.153 -17.181  0.00  0.00    -0.200 OA
ATOM     16  O   UNL d   1       7.042   1.971 -17.422  0.00  0.00    -0.200 OA
ENDBRANCH   4   5
ENDBRANCH   3   4
ENDBRANCH   2   3
ENDBRANCH   1   2
BRANCH   1  17
ATOM     17  C   UNL d   1       8.463   4.986 -12.822  0.00  0.00     0.035 C 
BRANCH  17  18
ATOM     18  C   UNL d   1       8.003   5.215 -11.391  0.00  0.00     0.250 C 
BRANCH  18  19
ATOM     19  N   UNL d   1       9.189   5.405 -10.581  0.00  0.00     0.141 N 
ATOM     20  C   UNL d   1       9.593   6.823 -10.642  0.00  0.00     0.274 C 
ATOM     21  C   UNL d   1      10.820   7.116  -9.772  0.00  0.00     0.137 C 
ATOM     22  N   UNL d   1      10.569   6.660  -8.411  0.00  0.00    -0.344 N 
ATOM     23  C   UNL d   1      10.058   5.308  -8.291  0.00  0.00     0.137 C 
ATOM     24  C   UNL d   1       8.854   5.078  -9.192  0.00  0.00     0.274 C 
BRANCH  22  25
ATOM     25  C   UNL d   1      10.803   7.435  -7.269  0.00  0.00     0.056 A 
ATOM     26  C   UNL d   1      11.205   6.845  -6.034  0.00  0.00     0.018 A 
ATOM     27  C   UNL d   1      11.423   7.636  -4.890  0.00  0.00     0.013 A 
ATOM     28  C   UNL d   1      11.242   9.015  -4.960  0.00  0.00     0.058 A 
ATOM     29  C   UNL d   1      10.854   9.622  -6.159  0.00  0.00     0.013 A 
ATOM     30 CL   UNL d   1      11.464   9.955  -3.552  0.00  0.00    -0.082 Cl
ATOM     31  C   UNL d   1      10.626   8.841  -7.312  0.00  0.00     0.018 A 
ENDBRANCH  22  25
ENDBRANCH  18  19
ENDBRANCH  17  18
ENDBRANCH   1  17
TORSDOF 8
