REMARK  6 active torsions:
REMARK  status: ('A' for Active; 'I' for Inactive)
REMARK       I    between atoms: C_2  and  N_3 
REMARK    1  A    between atoms: C_2  and  C_26 
REMARK    2  A    between atoms: N_3  and  C_4 
REMARK    3  A    between atoms: C_7  and  C_8 
REMARK    4  A    between atoms: C_8  and  C_9 
REMARK    5  A    between atoms: C_9  and  N_10 
REMARK    6  A    between atoms: N_13  and  C_14 
ROOT
ATOM      1  C   UNL d   1       9.176   6.061 -11.857  0.00  0.00     0.035 C 
ENDROOT
BRANCH   1   2
ATOM      2  C   UNL d   1       9.697   6.384 -10.451  0.00  0.00     0.002 C 
ATOM      3  C   UNL d   1       9.959   7.892 -10.310  0.00  0.00     0.002 C 
ATOM      4  C   UNL d   1      10.469   8.244  -8.913  0.00  0.00     0.024 C 
ATOM      5  C   UNL d   1       9.508   7.735  -7.822  0.00  0.00     0.107 C 
ATOM      6  C   UNL d   1       9.189   6.226  -7.972  0.00  0.00     0.024 C 
ATOM      7  C   UNL d   1       8.715   5.877  -9.374  0.00  0.00     0.002 C 
BRANCH   5   8
ATOM      8  N   UNL d   1      10.022   8.069  -6.497  0.00  0.00    -0.235 NA
ATOM      9  C   UNL d   1      11.070   7.493  -5.895  0.00  0.00     0.298 C 
ATOM     10  O   UNL d   1      11.701   6.547  -6.361  0.00  0.00    -0.263 OA
BRANCH   9  11
ATOM     11  C   UNL d   1      11.459   8.051  -4.601  0.00  0.00     0.157 A 
ATOM     12  O   UNL d   1      11.326   9.386  -4.373  0.00  0.00    -0.300 OA
ATOM     13  C   UNL d   1      11.850   9.614  -3.142  0.00  0.00     0.123 A 
ATOM     14  C   UNL d   1      12.270   8.453  -2.561  0.00  0.00     0.029 A 
ATOM     15  C   UNL d   1      12.040   7.436  -3.526  0.00  0.00     0.032 A 
ENDBRANCH   9  11
ENDBRANCH   5   8
ENDBRANCH   1   2
BRANCH   1  16
ATOM     16  C   UNL d   1       9.433   4.601 -12.266  0.00  0.00     0.250 C 
BRANCH  16  17
ATOM     17  N   UNL d   1       8.544   4.181 -13.338  0.00  0.00     0.141 N 
ATOM     18  C   UNL d   1       7.171   3.957 -12.836  0.00  0.00     0.274 C 
ATOM     19  C   UNL d   1       6.252   3.473 -13.962  0.00  0.00     0.137 C 
ATOM     20  N   UNL d   1       6.835   2.307 -14.639  0.00  0.00    -0.344 N 
ATOM     21  C   UNL d   1       8.221   2.458 -15.066  0.00  0.00     0.137 C 
ATOM     22  C   UNL d   1       9.082   2.934 -13.897  0.00  0.00     0.274 C 
BRANCH  20  23
ATOM     23  C   UNL d   1       6.116   1.129 -14.862  0.00  0.00     0.068 A 
ATOM     24  C   UNL d   1       6.120   0.431 -16.117  0.00  0.00     0.084 A 
ATOM     25  C   UNL d   1       5.310  -0.707 -16.300  0.00  0.00     0.070 A 
ATOM     26 CL   UNL d   1       6.984   1.036 -17.499  0.00  0.00    -0.080 Cl
ATOM     27  C   UNL d   1       4.463  -1.150 -15.272  0.00  0.00     0.012 A 
ATOM     28 CL   UNL d   1       5.278  -1.534 -17.818  0.00  0.00    -0.081 Cl
ATOM     29  C   UNL d   1       4.413  -0.449 -14.056  0.00  0.00     0.002 A 
ATOM     30  C   UNL d   1       5.253   0.652 -13.841  0.00  0.00     0.018 A 
ENDBRANCH  20  23
ENDBRANCH  16  17
ENDBRANCH   1  16
TORSDOF 6
