REMARK  12 active torsions:
REMARK  status: ('A' for Active; 'I' for Inactive)
REMARK    1  A    between atoms: C_2  and  C_3 
REMARK    2  A    between atoms: C_3  and  N_4 
REMARK    3  A    between atoms: N_4  and  C_5 
REMARK    4  A    between atoms: N_4  and  C_24 
REMARK    5  A    between atoms: C_5  and  C_6 
REMARK    6  A    between atoms: C_6  and  C_7 
REMARK    7  A    between atoms: C_7  and  C_8 
REMARK    8  A    between atoms: C_8  and  N_9 
REMARK       I    between atoms: N_9  and  C_10 
REMARK    9  A    between atoms: C_10  and  C_12 
REMARK   10  A    between atoms: C_15  and  C_16 
REMARK   11  A    between atoms: C_24  and  C_25 
REMARK   12  A    between atoms: C_27  and  C_28 
ROOT
ATOM      1  C   UNL d   1       8.812   4.590 -14.188  0.00  0.00     0.037 C 
ENDROOT
BRANCH   1   2
ATOM      2  C   UNL d   1       9.800   3.750 -15.021  0.00  0.00     0.250 C 
BRANCH   2   3
ATOM      3  N   UNL d   1       9.522   3.921 -16.448  0.00  0.00     0.137 N 
BRANCH   3   4
ATOM      4  C   UNL d   1      10.672   4.350 -17.241  0.00  0.00     0.250 C 
BRANCH   4   5
ATOM      5  C   UNL d   1      11.150   5.766 -16.879  0.00  0.00     0.035 C 
ATOM      6  C   UNL d   1      12.400   6.154 -17.676  0.00  0.00     0.002 C 
ENDBRANCH   4   5
ENDBRANCH   3   4
BRANCH   3   7
ATOM      7  C   UNL d   1       8.842   2.755 -17.017  0.00  0.00     0.251 C 
BRANCH   7   8
ATOM      8  C   UNL d   1       9.732   1.516 -17.209  0.00  0.00     0.038 A 
ATOM      9  C   UNL d   1       9.243   0.149 -16.793  0.00  0.00     0.024 A 
ATOM     10  C   UNL d   1       9.371   0.493 -18.261  0.00  0.00     0.007 A 
BRANCH   9  11
ATOM     11  C   UNL d   1       7.908   0.031 -16.139  0.00  0.00    -0.022 A 
ATOM     12  C   UNL d   1       6.786  -0.404 -16.876  0.00  0.00    -0.003 A 
ATOM     13  C   UNL d   1       5.531  -0.517 -16.260  0.00  0.00     0.011 A 
ATOM     14  C   UNL d   1       5.386  -0.191 -14.895  0.00  0.00     0.058 A 
ATOM     15  C   UNL d   1       6.497   0.267 -14.158  0.00  0.00     0.011 A 
ATOM     16 CL   UNL d   1       3.850  -0.353 -14.133  0.00  0.00    -0.082 Cl
ATOM     17  C   UNL d   1       7.758   0.372 -14.778  0.00  0.00    -0.003 A 
ENDBRANCH   9  11
ENDBRANCH   7   8
ENDBRANCH   3   7
ENDBRANCH   2   3
ENDBRANCH   1   2
BRANCH   1  18
ATOM     18  C   UNL d   1       9.347   4.849 -12.771  0.00  0.00     0.029 C 
BRANCH  18  19
ATOM     19  C   UNL d   1       8.518   5.876 -11.983  0.00  0.00     0.129 C 
BRANCH  19  20
ATOM     20  N   UNL d   1       9.161   6.198 -10.713  0.00  0.00    -0.234 NA
ATOM     21  C   UNL d   1       9.721   7.382 -10.399  0.00  0.00     0.275 C 
ATOM     22  O   UNL d   1       9.860   8.297 -11.209  0.00  0.00    -0.266 OA
BRANCH  21  23
ATOM     23  C   UNL d   1      10.177   7.537  -8.974  0.00  0.00     0.058 A 
ATOM     24  C   UNL d   1      11.225   8.431  -8.668  0.00  0.00     0.005 A 
ATOM     25  C   UNL d   1      11.637   8.619  -7.333  0.00  0.00     0.002 A 
ATOM     26  C   UNL d   1      11.009   7.922  -6.279  0.00  0.00     0.018 A 
ATOM     27  C   UNL d   1       9.942   7.052  -6.588  0.00  0.00     0.002 A 
ATOM     28  C   UNL d   1       9.515   6.872  -7.916  0.00  0.00     0.005 A 
BRANCH  26  29
ATOM     29  C   UNL d   1      11.461   8.099  -4.890  0.00  0.00     0.081 A 
ATOM     30  N   UNL d   1      11.469   9.370  -4.432  0.00  0.00    -0.244 NA
ATOM     31  C   UNL d   1      11.865   9.585  -3.158  0.00  0.00     0.099 A 
ATOM     32  C   UNL d   1      12.267   8.555  -2.293  0.00  0.00     0.021 A 
ATOM     33  C   UNL d   1      12.260   7.229  -2.770  0.00  0.00     0.003 A 
ATOM     34  C   UNL d   1      11.839   6.999  -4.093  0.00  0.00     0.019 A 
ENDBRANCH  26  29
ENDBRANCH  21  23
ENDBRANCH  19  20
ENDBRANCH  18  19
ENDBRANCH   1  18
TORSDOF 12
