REMARK  12 active torsions:
REMARK  status: ('A' for Active; 'I' for Inactive)
REMARK    1  A    between atoms: C_2  and  C_4 
REMARK    2  A    between atoms: C_9  and  N_10 
REMARK    3  A    between atoms: N_13  and  C_14 
REMARK    4  A    between atoms: C_14  and  C_15 
REMARK    5  A    between atoms: C_15  and  C_16 
REMARK    6  A    between atoms: C_16  and  C_17 
REMARK    7  A    between atoms: C_17  and  C_18 
REMARK    8  A    between atoms: C_18  and  C_19 
REMARK       I    between atoms: C_19  and  N_21 
REMARK    9  A    between atoms: N_21  and  C_22 
REMARK   10  A    between atoms: C_22  and  C_23 
REMARK   11  A    between atoms: C_26  and  O_27 
REMARK   12  A    between atoms: O_27  and  S_28 
ROOT
ATOM      1  C   UNL d   1       6.077   3.182 -13.790  0.00  0.00     0.003 C 
ENDROOT
BRANCH   1   2
ATOM      2  C   UNL d   1       6.481   4.398 -12.957  0.00  0.00     0.035 C 
BRANCH   2   3
ATOM      3  C   UNL d   1       7.678   4.164 -12.051  0.00  0.00     0.250 C 
BRANCH   3   4
ATOM      4  N   UNL d   1       7.924   5.340 -11.238  0.00  0.00     0.141 N 
ATOM      5  C   UNL d   1       8.940   6.194 -11.866  0.00  0.00     0.274 C 
ATOM      6  C   UNL d   1       9.234   7.431 -11.009  0.00  0.00     0.137 C 
ATOM      7  N   UNL d   1       9.567   6.985  -9.647  0.00  0.00    -0.344 N 
ATOM      8  C   UNL d   1       8.730   5.989  -9.027  0.00  0.00     0.137 C 
ATOM      9  C   UNL d   1       8.438   4.851  -9.960  0.00  0.00     0.274 C 
BRANCH   7  10
ATOM     10  C   UNL d   1      10.640   7.560  -8.949  0.00  0.00     0.052 A 
ATOM     11  C   UNL d   1      10.698   7.780  -7.552  0.00  0.00    -0.007 A 
ATOM     12  C   UNL d   1      11.830   8.386  -7.028  0.00  0.00    -0.003 A 
ATOM     13  C   UNL d   1      12.918   8.694  -7.857  0.00  0.00    -0.000 A 
ATOM     14  C   UNL d   1      12.926   8.413  -9.203  0.00  0.00     0.002 A 
ATOM     15  C   UNL d   1      11.769   7.908  -9.738  0.00  0.00     0.017 A 
BRANCH  11  16
ATOM     16  C   UNL d   1       9.579   7.453  -6.558  0.00  0.00     0.024 C 
ATOM     17  C   UNL d   1       8.805   8.718  -6.326  0.00  0.00     0.005 C 
ATOM     18  C   UNL d   1      10.133   6.789  -5.280  0.00  0.00     0.005 C 
ENDBRANCH  11  16
ENDBRANCH   7  10
ENDBRANCH   3   4
ENDBRANCH   2   3
ENDBRANCH   1   2
BRANCH   1  19
ATOM     19  C   UNL d   1       5.492   1.998 -12.984  0.00  0.00     0.010 C 
BRANCH  19  20
ATOM     20  C   UNL d   1       5.162   0.707 -13.774  0.00  0.00     0.090 C 
BRANCH  20  21
ATOM     21  C   UNL d   1       6.353   0.223 -14.582  0.00  0.00     0.252 C 
ATOM     22  O   UNL d   1       7.225  -0.415 -14.002  0.00  0.00    -0.271 OA
ATOM     23  N   UNL d   1       6.380   0.551 -15.886  0.00  0.00    -0.233 NA
BRANCH  23  24
ATOM     24  C   UNL d   1       7.412   0.202 -16.857  0.00  0.00     0.155 C 
BRANCH  24  25
ATOM     25  C   UNL d   1       8.704   0.998 -16.724  0.00  0.00     0.002 A 
ATOM     26  C   UNL d   1       9.519   0.904 -15.567  0.00  0.00    -0.000 A 
ATOM     27  C   UNL d   1      10.689   1.673 -15.441  0.00  0.00     0.025 A 
ATOM     28  C   UNL d   1      11.094   2.501 -16.506  0.00  0.00     0.113 A 
ATOM     29  C   UNL d   1      10.331   2.521 -17.695  0.00  0.00     0.025 A 
ATOM     30  C   UNL d   1       9.121   1.813 -17.794  0.00  0.00    -0.000 A 
BRANCH  28  31
ATOM     31  O   UNL d   1      12.229   3.265 -16.406  0.00  0.00    -0.230 OA
BRANCH  31  32
ATOM     32  S   UNL d   1      12.059   4.911 -16.013  0.00  0.00     0.285 S 
ATOM     33  C   UNL d   1      10.625   5.419 -17.055  0.00  0.00     0.172 C 
ATOM     34  O   UNL d   1      11.714   5.037 -14.615  0.00  0.00    -0.197 OA
ATOM     35  O   UNL d   1      13.283   5.580 -16.558  0.00  0.00    -0.197 OA
ENDBRANCH  31  32
ENDBRANCH  28  31
ENDBRANCH  24  25
ENDBRANCH  23  24
ENDBRANCH  20  21
ENDBRANCH  19  20
ENDBRANCH   1  19
TORSDOF 12
