REMARK  7 active torsions:
REMARK  status: ('A' for Active; 'I' for Inactive)
REMARK    1  A    between atoms: C_2  and  O_5 
REMARK    2  A    between atoms: O_5  and  C_6 
REMARK    3  A    between atoms: C_9  and  C_10 
REMARK    4  A    between atoms: C_10  and  N_11 
REMARK    5  A    between atoms: C_15  and  C_16 
REMARK    6  A    between atoms: C_16  and  C_17 
REMARK    7  A    between atoms: C_17  and  C_18 
ROOT
ATOM      1  N   UNL d   1       9.420   5.519 -10.567  0.00  0.00     0.147 N 
ATOM      2  C   UNL d   1       8.203   5.120  -9.870  0.00  0.00     0.283 C 
ATOM      3  C   UNL d   1       8.480   4.622  -8.449  0.00  0.00     0.178 C 
ATOM      4  O   UNL d   1       9.152   5.638  -7.731  0.00  0.00    -0.352 OA
ATOM      5  C   UNL d   1      10.393   5.960  -8.321  0.00  0.00     0.149 C 
ATOM      6  C   UNL d   1      10.111   6.495  -9.739  0.00  0.00     0.280 C 
ENDROOT
BRANCH   1   7
ATOM      7  C   UNL d   1       9.122   6.057 -11.892  0.00  0.00     0.277 C 
BRANCH   7   8
ATOM      8  C   UNL d   1       8.836   4.973 -12.921  0.00  0.00     0.011 A 
ATOM      9  C   UNL d   1       9.855   4.522 -13.784  0.00  0.00    -0.000 A 
ATOM     10  C   UNL d   1       9.594   3.513 -14.733  0.00  0.00     0.024 A 
ATOM     11  C   UNL d   1       8.309   2.921 -14.819  0.00  0.00     0.102 A 
ATOM     12  C   UNL d   1       7.296   3.382 -13.947  0.00  0.00     0.024 A 
ATOM     13  C   UNL d   1       7.551   4.400 -13.020  0.00  0.00    -0.000 A 
BRANCH  11  14
ATOM     14  O   UNL d   1       7.947   1.944 -15.720  0.00  0.00    -0.253 OA
BRANCH  14  15
ATOM     15  C   UNL d   1       8.846   1.437 -16.604  0.00  0.00     0.530 C 
ATOM     16  F   UNL d   1       8.247   0.490 -17.363  0.00  0.00    -0.144 F 
ATOM     17  F   UNL d   1       9.891   0.842 -15.976  0.00  0.00    -0.144 F 
ATOM     18  F   UNL d   1       9.309   2.390 -17.455  0.00  0.00    -0.144 F 
ENDBRANCH  14  15
ENDBRANCH  11  14
ENDBRANCH   7   8
ENDBRANCH   1   7
BRANCH   5  19
ATOM     19  C   UNL d   1      11.030   7.047  -7.465  0.00  0.00     0.036 C 
BRANCH  19  20
ATOM     20  C   UNL d   1      11.289   6.643  -5.993  0.00  0.00     0.029 C 
BRANCH  20  21
ATOM     21  C   UNL d   1      11.458   7.812  -5.027  0.00  0.00    -0.022 A 
ATOM     22  C   UNL d   1      10.903   9.095  -5.317  0.00  0.00    -0.004 A 
ATOM     23  C   UNL d   1      11.053  10.141  -4.413  0.00  0.00    -0.000 A 
ATOM     24  C   UNL d   1      11.752   9.939  -3.203  0.00  0.00    -0.000 A 
ATOM     25  C   UNL d   1      12.286   8.685  -2.892  0.00  0.00    -0.000 A 
ATOM     26  C   UNL d   1      12.134   7.616  -3.804  0.00  0.00    -0.004 A 
ENDBRANCH  20  21
ENDBRANCH  19  20
ENDBRANCH   5  19
TORSDOF 7
