REMARK  5 active torsions:
REMARK  status: ('A' for Active; 'I' for Inactive)
REMARK    1  A    between atoms: C_5  and  S_6 
REMARK    2  A    between atoms: S_6  and  C_7 
REMARK    3  A    between atoms: C_7  and  C_8 
REMARK    4  A    between atoms: C_8  and  C_9 
REMARK    5  A    between atoms: C_9  and  N_10 
ROOT
ATOM      1  C   UNL d   1       9.373   6.489  -9.050  0.00  0.00     0.252 C 
ENDROOT
BRANCH   1   2
ATOM      2  C   UNL d   1       9.884   6.691 -10.488  0.00  0.00     0.047 C 
BRANCH   2   3
ATOM      3  C   UNL d   1       9.414   5.595 -11.468  0.00  0.00     0.064 C 
BRANCH   3   4
ATOM      4  S   UNL d   1       7.705   5.849 -12.034  0.00  0.00    -0.114 SA
BRANCH   4   5
ATOM      5  C   UNL d   1       7.175   4.355 -12.807  0.00  0.00     0.025 A 
ATOM      6  C   UNL d   1       5.920   3.812 -12.456  0.00  0.00     0.009 A 
ATOM      7  C   UNL d   1       5.470   2.626 -13.066  0.00  0.00     0.030 A 
ATOM      8  C   UNL d   1       6.267   1.983 -14.037  0.00  0.00     0.140 A 
ATOM      9  F   UNL d   1       5.837   0.834 -14.612  0.00  0.00    -0.204 F 
ATOM     10  C   UNL d   1       7.514   2.530 -14.400  0.00  0.00     0.030 A 
ATOM     11  C   UNL d   1       7.973   3.714 -13.776  0.00  0.00     0.009 A 
ENDBRANCH   4   5
ENDBRANCH   3   4
ENDBRANCH   2   3
ENDBRANCH   1   2
BRANCH   1  12
ATOM     12  N   UNL d   1      10.193   7.245  -8.103  0.00  0.00     0.142 N 
ATOM     13  C   UNL d   1      10.179   6.578  -6.801  0.00  0.00     0.276 C 
ATOM     14  C   UNL d   1      10.937   7.325  -5.712  0.00  0.00     0.007 A 
ATOM     15  C   UNL d   1      11.146   8.707  -5.843  0.00  0.00    -0.022 A 
ATOM     16  C   UNL d   1      11.386   6.664  -4.549  0.00  0.00    -0.003 A 
ATOM     17  C   UNL d   1      10.709   9.415  -7.112  0.00  0.00     0.061 C 
ATOM     18  C   UNL d   1      11.784   9.417  -4.814  0.00  0.00    -0.004 A 
ATOM     19  C   UNL d   1       9.690   8.610  -7.942  0.00  0.00     0.255 C 
ATOM     20  C   UNL d   1      12.241   8.761  -3.652  0.00  0.00    -0.000 A 
ATOM     21  C   UNL d   1      12.038   7.373  -3.519  0.00  0.00    -0.000 A 
ENDBRANCH   1  12
TORSDOF 5
