REMARK  6 active torsions:
REMARK  status: ('A' for Active; 'I' for Inactive)
REMARK    1  A    between atoms: N_13  and  C_14 
REMARK    2  A    between atoms: C_14  and  C_15 
REMARK    3  A    between atoms: C_15  and  C_16 
REMARK    4  A    between atoms: C_16  and  S_17 
REMARK    5  A    between atoms: S_17  and  C_18 
REMARK    6  A    between atoms: C_21  and  C_22 
ROOT
ATOM      1  C   UNL d   1       9.069   6.794 -10.685  0.00  0.00     0.251 C 
ENDROOT
BRANCH   1   2
ATOM      2  N   UNL d   1      10.123   7.293  -9.810  0.00  0.00     0.138 N 
ATOM      3  C   UNL d   1      10.065   6.557  -8.550  0.00  0.00     0.255 C 
ATOM      4  C   UNL d   1      11.312   6.778  -7.678  0.00  0.00     0.062 C 
ATOM      5  C   UNL d   1      11.250   8.013  -6.846  0.00  0.00    -0.017 C 
ATOM      6  C   UNL d   1      11.269   9.252  -7.517  0.00  0.00    -0.024 C 
ATOM      7  C   UNL d   1      11.379   7.963  -5.447  0.00  0.00     0.044 A 
ATOM      8  C   UNL d   1      11.358  10.414  -6.739  0.00  0.00    -0.003 C 
ATOM      9  C   UNL d   1      11.217   9.362  -9.046  0.00  0.00     0.061 C 
ATOM     10  C   UNL d   1      11.299  10.379  -5.351  0.00  0.00     0.019 C 
ATOM     11  C   UNL d   1      11.399   9.155  -4.667  0.00  0.00     0.087 A 
ATOM     12  N   UNL d   1      11.467   8.977  -3.300  0.00  0.00    -0.243 NA
ATOM     13  C   UNL d   1      11.602   7.673  -3.051  0.00  0.00     0.089 A 
ATOM     14  C   UNL d   1      11.614   7.159  -1.691  0.00  0.00     0.059 C 
ATOM     15  S   UNL d   1      11.518   6.573  -4.405  0.00  0.00    -0.071 SA
ATOM     16  C   UNL d   1       9.965   8.736  -9.659  0.00  0.00     0.255 C 
ENDBRANCH   1   2
BRANCH   1  17
ATOM     17  C   UNL d   1       9.613   5.730 -11.629  0.00  0.00     0.047 C 
BRANCH  17  18
ATOM     18  C   UNL d   1       8.785   5.682 -12.917  0.00  0.00     0.067 C 
BRANCH  18  19
ATOM     19  S   UNL d   1       9.505   4.456 -14.071  0.00  0.00    -0.075 SA
BRANCH  19  20
ATOM     20  C   UNL d   1       8.175   3.337 -14.267  0.00  0.00     0.193 A 
ATOM     21  N   UNL d   1       8.206   2.295 -15.138  0.00  0.00    -0.287 N 
ATOM     22  C   UNL d   1       6.979   1.752 -14.944  0.00  0.00     0.191 A 
ATOM     23  C   UNL d   1       9.254   1.870 -16.057  0.00  0.00     0.134 C 
ATOM     24  N   UNL d   1       6.269   2.411 -14.023  0.00  0.00    -0.126 NA
ATOM     25  N   UNL d   1       7.037   3.465 -13.597  0.00  0.00    -0.122 NA
BRANCH  22  26
ATOM     26  C   UNL d   1       6.428   0.600 -15.644  0.00  0.00     0.151 A 
ATOM     27  C   UNL d   1       5.417  -0.265 -15.292  0.00  0.00     0.087 A 
ATOM     28  N   UNL d   1       5.239  -1.163 -16.331  0.00  0.00    -0.221 NA
ATOM     29  C   UNL d   1       4.590  -0.323 -14.039  0.00  0.00     0.054 C 
ATOM     30  C   UNL d   1       6.150  -0.805 -17.232  0.00  0.00     0.225 A 
ATOM     31  O   UNL d   1       6.905   0.267 -16.883  0.00  0.00    -0.282 OA
ENDBRANCH  22  26
ENDBRANCH  19  20
ENDBRANCH  18  19
ENDBRANCH  17  18
ENDBRANCH   1  17
TORSDOF 6
