REMARK  11 active torsions:
REMARK  status: ('A' for Active; 'I' for Inactive)
REMARK    1  A    between atoms: C_2  and  N_3 
REMARK    2  A    between atoms: N_3  and  C_4 
REMARK    3  A    between atoms: N_3  and  C_21 
REMARK    4  A    between atoms: C_4  and  C_5 
REMARK    5  A    between atoms: C_5  and  C_6 
REMARK    6  A    between atoms: C_6  and  C_7 
REMARK    7  A    between atoms: C_7  and  N_8 
REMARK       I    between atoms: N_8  and  C_9 
REMARK    8  A    between atoms: C_9  and  C_11 
REMARK    9  A    between atoms: C_21  and  C_22 
REMARK   10  A    between atoms: C_24  and  C_25 
REMARK   11  A    between atoms: C_31  and  O_32 
ROOT
ATOM      1  C   UNL d   1      10.862   4.672 -13.272  0.00  0.00     0.250 C 
ENDROOT
BRANCH   1   2
ATOM      2  N   UNL d   1      10.956   4.628 -14.735  0.00  0.00     0.137 N 
BRANCH   2   3
ATOM      3  C   UNL d   1      12.057   3.742 -15.133  0.00  0.00     0.250 C 
ATOM      4  C   UNL d   1      12.397   3.835 -16.635  0.00  0.00     0.037 C 
ENDBRANCH   2   3
BRANCH   2   5
ATOM      5  C   UNL d   1       9.686   4.274 -15.367  0.00  0.00     0.251 C 
BRANCH   5   6
ATOM      6  C   UNL d   1       9.166   2.905 -14.917  0.00  0.00     0.038 A 
ATOM      7  C   UNL d   1       8.090   2.208 -15.707  0.00  0.00     0.026 A 
ATOM      8  C   UNL d   1       9.487   1.640 -15.684  0.00  0.00     0.007 A 
BRANCH   7   9
ATOM      9  C   UNL d   1       6.981   1.489 -15.007  0.00  0.00     0.002 A 
ATOM     10  C   UNL d   1       6.261   2.081 -13.929  0.00  0.00     0.090 A 
ATOM     11  C   UNL d   1       5.277   1.310 -13.278  0.00  0.00     0.026 A 
ATOM     12  C   UNL d   1       4.948   0.021 -13.735  0.00  0.00     0.032 A 
ATOM     13  C   UNL d   1       5.662  -0.547 -14.806  0.00  0.00     0.140 A 
ATOM     14  C   UNL d   1       6.674   0.183 -15.428  0.00  0.00     0.027 A 
ATOM     15  F   UNL d   1       5.363  -1.799 -15.225  0.00  0.00    -0.204 F 
BRANCH  10  16
ATOM     16  O   UNL d   1       6.571   3.378 -13.576  0.00  0.00    -0.328 OA
ATOM     17  C   UNL d   1       5.925   3.936 -12.437  0.00  0.00     0.181 C 
ENDBRANCH  10  16
ENDBRANCH   7   9
ENDBRANCH   5   6
ENDBRANCH   2   5
ENDBRANCH   1   2
BRANCH   1  18
ATOM     18  C   UNL d   1       9.834   5.716 -12.776  0.00  0.00     0.037 C 
BRANCH  18  19
ATOM     19  C   UNL d   1       9.989   5.985 -11.293  0.00  0.00     0.029 C 
BRANCH  19  20
ATOM     20  C   UNL d   1       9.071   7.045 -10.739  0.00  0.00     0.129 C 
BRANCH  20  21
ATOM     21  N   UNL d   1       9.482   7.489  -9.398  0.00  0.00    -0.234 NA
ATOM     22  C   UNL d   1       9.986   6.793  -8.370  0.00  0.00     0.275 C 
ATOM     23  O   UNL d   1      10.145   5.568  -8.385  0.00  0.00    -0.266 OA
BRANCH  22  24
ATOM     24  C   UNL d   1      10.424   7.566  -7.161  0.00  0.00     0.058 A 
ATOM     25  C   UNL d   1      10.975   6.861  -6.070  0.00  0.00     0.005 A 
ATOM     26  C   UNL d   1      11.376   7.523  -4.905  0.00  0.00     0.000 A 
ATOM     27  C   UNL d   1      11.252   8.929  -4.827  0.00  0.00     0.000 A 
ATOM     28  C   UNL d   1      11.868   6.791  -3.811  0.00  0.00     0.000 A 
ATOM     29  C   UNL d   1      10.735   9.649  -5.918  0.00  0.00     0.000 A 
ATOM     30  C   UNL d   1      11.616   9.587  -3.642  0.00  0.00     0.000 A 
ATOM     31  C   UNL d   1      10.312   8.974  -7.080  0.00  0.00     0.005 A 
ATOM     32  C   UNL d   1      12.152   8.863  -2.563  0.00  0.00     0.000 A 
ATOM     33  C   UNL d   1      12.261   7.462  -2.638  0.00  0.00     0.000 A 
ENDBRANCH  22  24
ENDBRANCH  20  21
ENDBRANCH  19  20
ENDBRANCH  18  19
ENDBRANCH   1  18
TORSDOF 11
