REMARK  7 active torsions:
REMARK  status: ('A' for Active; 'I' for Inactive)
REMARK    1  A    between atoms: C_2  and  C_3 
REMARK    2  A    between atoms: C_3  and  N_4 
REMARK    3  A    between atoms: C_19  and  O_20 
REMARK    4  A    between atoms: O_20  and  C_21 
REMARK    5  A    between atoms: C_21  and  C_23 
REMARK    6  A    between atoms: C_23  and  S_24 
REMARK    7  A    between atoms: S_24  and  C_25 
ROOT
ATOM      1  N   UNL d   1       5.511  -0.261 -16.170  0.00  0.00     0.140 N 
ATOM      2  C   UNL d   1       5.946  -0.522 -14.791  0.00  0.00     0.255 C 
ATOM      3  C   UNL d   1       6.328   0.857 -14.246  0.00  0.00     0.061 C 
ATOM      4  C   UNL d   1       7.389   1.607 -15.034  0.00  0.00    -0.022 C 
ATOM      5  C   UNL d   1       8.149   2.652 -14.520  0.00  0.00    -0.004 C 
ATOM      6  C   UNL d   1       9.009   3.337 -15.397  0.00  0.00    -0.000 C 
ATOM      7  C   UNL d   1       9.114   2.988 -16.752  0.00  0.00    -0.000 C 
ATOM      8  C   UNL d   1       8.449   1.857 -17.294  0.00  0.00    -0.001 C 
ATOM      9  C   UNL d   1       7.542   1.232 -16.403  0.00  0.00     0.005 C 
ATOM     10  C   UNL d   1       6.697   0.073 -16.995  0.00  0.00     0.245 C 
ATOM     11  C   UNL d   1       6.304   0.429 -18.467  0.00  0.00     0.064 C 
ATOM     12  C   UNL d   1       7.533   0.747 -19.301  0.00  0.00    -0.018 A 
ATOM     13  C   UNL d   1       7.579   0.353 -20.658  0.00  0.00    -0.004 A 
ATOM     14  C   UNL d   1       8.745   0.582 -21.408  0.00  0.00     0.002 A 
ATOM     15  C   UNL d   1       9.866   1.168 -20.800  0.00  0.00     0.025 A 
ATOM     16  C   UNL d   1       9.832   1.550 -19.436  0.00  0.00     0.103 A 
ATOM     17  C   UNL d   1       8.627   1.395 -18.691  0.00  0.00     0.019 A 
ENDROOT
BRANCH  16  18
ATOM     18  O   UNL d   1      10.953   2.102 -18.862  0.00  0.00    -0.276 OA
BRANCH  18  19
ATOM     19  C   UNL d   1      11.647   1.413 -17.921  0.00  0.00     0.288 C 
ATOM     20  O   UNL d   1      11.479   0.215 -17.663  0.00  0.00    -0.263 OA
BRANCH  19  21
ATOM     21  C   UNL d   1      12.699   2.257 -17.208  0.00  0.00     0.158 C 
BRANCH  21  22
ATOM     22  S   UNL d   1      11.975   3.623 -16.232  0.00  0.00    -0.103 SA
BRANCH  22  23
ATOM     23  C   UNL d   1      12.796   5.114 -16.675  0.00  0.00     0.026 A 
ATOM     24  C   UNL d   1      12.351   6.388 -16.196  0.00  0.00     0.006 A 
ATOM     25  C   UNL d   1      13.063   7.595 -16.473  0.00  0.00     0.001 A 
ATOM     26  C   UNL d   1      14.248   7.535 -17.263  0.00  0.00     0.000 A 
ATOM     27  C   UNL d   1      14.680   6.288 -17.799  0.00  0.00     0.001 A 
ATOM     28  C   UNL d   1      13.954   5.091 -17.506  0.00  0.00     0.006 A 
ENDBRANCH  22  23
ENDBRANCH  21  22
ENDBRANCH  19  21
ENDBRANCH  18  19
ENDBRANCH  16  18
BRANCH   1  29
ATOM     29  C   UNL d   1       4.804  -1.446 -16.636  0.00  0.00     0.251 C 
BRANCH  29  30
ATOM     30  C   UNL d   1       3.319  -1.357 -16.265  0.00  0.00     0.035 C 
ATOM     31  C   UNL d   1       2.957  -0.846 -14.857  0.00  0.00     0.002 C 
ENDBRANCH  29  30
ENDBRANCH   1  29
TORSDOF 7
