REMARK  8 active torsions:
REMARK  status: ('A' for Active; 'I' for Inactive)
REMARK    1  A    between atoms: N_14  and  C_15 
REMARK    2  A    between atoms: C_15  and  C_16 
REMARK    3  A    between atoms: C_16  and  C_17 
REMARK    4  A    between atoms: C_17  and  C_18 
REMARK    5  A    between atoms: C_18  and  C_19 
REMARK    6  A    between atoms: C_19  and  C_20 
REMARK    7  A    between atoms: C_20  and  N_21 
REMARK    8  A    between atoms: N_24  and  C_25 
ROOT
ATOM      1  C   UNL d   1       6.682   3.323 -13.785  0.00  0.00     0.002 C 
ENDROOT
BRANCH   1   2
ATOM      2  C   UNL d   1       8.047   2.977 -14.411  0.00  0.00     0.025 C 
BRANCH   2   3
ATOM      3  C   UNL d   1       7.936   2.126 -15.692  0.00  0.00     0.118 C 
BRANCH   3   4
ATOM      4  N   UNL d   1       9.231   1.847 -16.294  0.00  0.00    -0.254 N 
ATOM      5  S   UNL d   1       9.730   0.239 -16.691  0.00  0.00     0.268 S 
ATOM      6  O   UNL d   1       8.689  -0.362 -17.535  0.00  0.00    -0.200 OA
ATOM      7  O   UNL d   1      10.257  -0.393 -15.470  0.00  0.00    -0.200 OA
ATOM      8  C   UNL d   1      11.047   0.899 -17.680  0.00  0.00     0.105 A 
ATOM      9  C   UNL d   1      11.036   2.304 -17.688  0.00  0.00     0.029 A 
ATOM     10  C   UNL d   1      12.014   0.206 -18.438  0.00  0.00     0.013 A 
ATOM     11  C   UNL d   1      11.968   3.072 -18.415  0.00  0.00     0.002 A 
ATOM     12  C   UNL d   1       9.989   2.849 -16.919  0.00  0.00     0.071 A 
ATOM     13  C   UNL d   1      12.938   2.364 -19.163  0.00  0.00     0.000 A 
ATOM     14  C   UNL d   1      11.840   4.476 -18.343  0.00  0.00     0.000 A 
ATOM     15  C   UNL d   1      12.963   0.950 -19.175  0.00  0.00     0.001 A 
ATOM     16  C   UNL d   1      10.792   5.058 -17.596  0.00  0.00     0.002 A 
ATOM     17  C   UNL d   1       9.851   4.258 -16.916  0.00  0.00     0.018 A 
ENDBRANCH   3   4
ENDBRANCH   2   3
ENDBRANCH   1   2
BRANCH   1  18
ATOM     18  C   UNL d   1       6.757   4.621 -12.955  0.00  0.00     0.002 C 
BRANCH  18  19
ATOM     19  C   UNL d   1       7.845   4.622 -11.873  0.00  0.00     0.035 C 
BRANCH  19  20
ATOM     20  C   UNL d   1       8.107   6.024 -11.330  0.00  0.00     0.250 C 
BRANCH  20  21
ATOM     21  N   UNL d   1       9.288   6.022 -10.463  0.00  0.00     0.141 N 
ATOM     22  C   UNL d   1       8.890   5.579  -9.125  0.00  0.00     0.274 C 
ATOM     23  C   UNL d   1      10.103   5.576  -8.195  0.00  0.00     0.137 C 
ATOM     24  N   UNL d   1      10.727   6.888  -8.159  0.00  0.00    -0.344 N 
ATOM     25  C   UNL d   1      11.058   7.440  -9.462  0.00  0.00     0.137 C 
ATOM     26  C   UNL d   1       9.813   7.390 -10.361  0.00  0.00     0.274 C 
BRANCH  24  27
ATOM     27  C   UNL d   1      11.008   7.548  -6.934  0.00  0.00     0.056 A 
ATOM     28  C   UNL d   1      11.031   8.959  -6.852  0.00  0.00     0.018 A 
ATOM     29  C   UNL d   1      11.302   9.601  -5.625  0.00  0.00     0.013 A 
ATOM     30  C   UNL d   1      11.548   8.838  -4.467  0.00  0.00     0.058 A 
ATOM     31  C   UNL d   1      11.526   7.433  -4.541  0.00  0.00     0.013 A 
ATOM     32 CL   UNL d   1      11.853   9.585  -2.959  0.00  0.00    -0.082 Cl
ATOM     33  C   UNL d   1      11.272   6.799  -5.766  0.00  0.00     0.018 A 
ENDBRANCH  24  27
ENDBRANCH  20  21
ENDBRANCH  19  20
ENDBRANCH  18  19
ENDBRANCH   1  18
TORSDOF 8
