REMARK  7 active torsions:
REMARK  status: ('A' for Active; 'I' for Inactive)
REMARK    1  A    between atoms: O_2  and  C_3 
REMARK    2  A    between atoms: C_8  and  O_9 
REMARK    3  A    between atoms: N_12  and  C_13 
REMARK    4  A    between atoms: C_13  and  C_14 
REMARK    5  A    between atoms: C_19  and  C_20 
REMARK    6  A    between atoms: C_20  and  N_21 
REMARK       I    between atoms: N_21  and  C_22 
REMARK    7  A    between atoms: C_22  and  C_24 
ROOT
ATOM      1  C   UNL d   1       9.880   7.167  -8.688  0.00  0.00     0.058 A 
ATOM      2  C   UNL d   1       9.329   6.389  -7.646  0.00  0.00     0.005 A 
ATOM      3  C   UNL d   1       9.488   6.786  -6.307  0.00  0.00     0.001 A 
ATOM      4  C   UNL d   1      10.193   7.952  -5.994  0.00  0.00     0.010 A 
ATOM      5  C   UNL d   1      10.715   8.734  -7.029  0.00  0.00     0.069 A 
ATOM      6  C   UNL d   1      11.356   9.961  -6.685  0.00  0.00     0.101 C 
ATOM      7  N   UNL d   1      11.857  10.956  -6.414  0.00  0.00    -0.191 NA
ATOM      8  C   UNL d   1      10.570   8.353  -8.371  0.00  0.00     0.015 A 
ENDROOT
BRANCH   1   9
ATOM      9  C   UNL d   1       9.710   6.766 -10.118  0.00  0.00     0.275 C 
ATOM     10  N   UNL d   1       9.512   5.458 -10.319  0.00  0.00    -0.229 NA
ATOM     11  O   UNL d   1       9.857   7.585 -11.029  0.00  0.00    -0.266 OA
BRANCH  10  12
ATOM     12  C   UNL d   1       9.514   4.790 -11.616  0.00  0.00     0.155 C 
BRANCH  12  13
ATOM     13  C   UNL d   1       8.130   4.466 -12.152  0.00  0.00     0.000 A 
ATOM     14  C   UNL d   1       7.748   4.569 -13.499  0.00  0.00     0.009 A 
ATOM     15  C   UNL d   1       6.422   4.217 -13.857  0.00  0.00    -0.003 A 
ATOM     16  C   UNL d   1       5.462   3.770 -12.978  0.00  0.00    -0.000 A 
ATOM     17  C   UNL d   1       5.854   3.662 -11.652  0.00  0.00    -0.000 A 
ATOM     18  C   UNL d   1       7.138   4.013 -11.245  0.00  0.00    -0.003 A 
BRANCH  14  19
ATOM     19  C   UNL d   1       8.737   5.076 -14.524  0.00  0.00     0.277 C 
BRANCH  19  20
ATOM     20  N   UNL d   1       9.539   4.016 -15.134  0.00  0.00     0.146 N 
ATOM     21  C   UNL d   1      10.512   4.638 -16.028  0.00  0.00     0.277 C 
ATOM     22  C   UNL d   1      11.362   3.631 -16.784  0.00  0.00     0.009 A 
ATOM     23  C   UNL d   1      10.906   2.321 -16.972  0.00  0.00    -0.020 A 
ATOM     24  C   UNL d   1      12.588   4.029 -17.336  0.00  0.00     0.024 A 
ATOM     25  C   UNL d   1      11.668   1.411 -17.715  0.00  0.00     0.022 A 
ATOM     26  C   UNL d   1       9.603   1.874 -16.351  0.00  0.00     0.061 C 
ATOM     27  C   UNL d   1      12.911   1.797 -18.296  0.00  0.00     0.116 A 
ATOM     28  C   UNL d   1      13.382   3.118 -18.093  0.00  0.00     0.116 A 
ATOM     29  C   UNL d   1       8.745   3.068 -15.929  0.00  0.00     0.256 C 
BRANCH  27  30
ATOM     30  O   UNL d   1      13.692   0.918 -19.028  0.00  0.00    -0.326 OA
ATOM     31  C   UNL d   1      13.216  -0.417 -19.197  0.00  0.00     0.181 C 
ENDBRANCH  27  30
BRANCH  28  32
ATOM     32  O   UNL d   1      14.607   3.470 -18.637  0.00  0.00    -0.326 OA
ATOM     33  C   UNL d   1      15.090   4.787 -18.386  0.00  0.00     0.181 C 
ENDBRANCH  28  32
ENDBRANCH  19  20
ENDBRANCH  14  19
ENDBRANCH  12  13
ENDBRANCH  10  12
ENDBRANCH   1   9
TORSDOF 7
