REMARK  9 active torsions:
REMARK  status: ('A' for Active; 'I' for Inactive)
REMARK    1  A    between atoms: O_2  and  C_3 
REMARK    2  A    between atoms: C_8  and  N_9 
REMARK    3  A    between atoms: N_12  and  C_13 
REMARK    4  A    between atoms: C_13  and  C_14 
REMARK    5  A    between atoms: C_14  and  C_15 
REMARK    6  A    between atoms: C_15  and  C_16 
REMARK    7  A    between atoms: C_16  and  N_17 
REMARK       I    between atoms: N_17  and  C_18 
REMARK    8  A    between atoms: C_18  and  C_20 
REMARK    9  A    between atoms: C_21  and  C_22 
ROOT
ATOM      1  C   UNL d   1      10.940   7.876  -7.087  0.00  0.00     0.000 A 
ATOM      2  C   UNL d   1      11.281   9.172  -6.649  0.00  0.00     0.001 A 
ATOM      3  C   UNL d   1      11.713   9.388  -5.324  0.00  0.00     0.010 A 
ATOM      4  C   UNL d   1      11.809   8.310  -4.417  0.00  0.00     0.068 A 
ATOM      5  C   UNL d   1      12.260   8.506  -3.052  0.00  0.00     0.101 C 
ATOM      6  N   UNL d   1      12.627   8.657  -1.963  0.00  0.00    -0.191 NA
ATOM      7  C   UNL d   1      11.464   7.018  -4.849  0.00  0.00     0.010 A 
ATOM      8  C   UNL d   1      11.035   6.805  -6.169  0.00  0.00     0.001 A 
ENDROOT
BRANCH   1   9
ATOM      9  C   UNL d   1      10.458   7.668  -8.467  0.00  0.00     0.005 C 
ATOM     10  C   UNL d   1       9.850   6.555  -8.911  0.00  0.00     0.062 C 
BRANCH  10  11
ATOM     11  C   UNL d   1       9.460   6.402 -10.301  0.00  0.00     0.275 C 
ATOM     12  N   UNL d   1       8.781   5.261 -10.487  0.00  0.00    -0.234 NA
ATOM     13  O   UNL d   1       9.724   7.182 -11.216  0.00  0.00    -0.266 OA
BRANCH  12  14
ATOM     14  C   UNL d   1       8.428   4.720 -11.787  0.00  0.00     0.129 C 
BRANCH  14  15
ATOM     15  C   UNL d   1       9.647   4.042 -12.435  0.00  0.00     0.029 C 
BRANCH  15  16
ATOM     16  C   UNL d   1       9.265   3.415 -13.764  0.00  0.00     0.037 C 
BRANCH  16  17
ATOM     17  C   UNL d   1      10.464   2.765 -14.503  0.00  0.00     0.251 C 
BRANCH  17  18
ATOM     18  N   UNL d   1      10.097   2.075 -15.741  0.00  0.00     0.141 N 
ATOM     19  C   UNL d   1       9.390   0.820 -15.452  0.00  0.00     0.274 C 
ATOM     20  C   UNL d   1       9.052   0.085 -16.756  0.00  0.00     0.137 C 
ATOM     21  N   UNL d   1       8.295   0.961 -17.644  0.00  0.00    -0.343 N 
ATOM     22  C   UNL d   1       8.952   2.228 -17.945  0.00  0.00     0.137 C 
ATOM     23  C   UNL d   1       9.289   2.928 -16.628  0.00  0.00     0.274 C 
BRANCH  21  24
ATOM     24  C   UNL d   1       7.051   0.618 -18.199  0.00  0.00     0.079 A 
ATOM     25  C   UNL d   1       6.026  -0.056 -17.459  0.00  0.00     0.110 A 
ATOM     26  C   UNL d   1       4.808  -0.381 -18.110  0.00  0.00     0.026 A 
ATOM     27  C   UNL d   1       4.583  -0.020 -19.449  0.00  0.00     0.002 A 
ATOM     28  C   UNL d   1       5.578   0.653 -20.171  0.00  0.00     0.002 A 
ATOM     29  C   UNL d   1       6.800   0.959 -19.554  0.00  0.00     0.019 A 
BRANCH  25  30
ATOM     30  O   UNL d   1       6.247  -0.328 -16.120  0.00  0.00    -0.327 OA
ATOM     31  C   UNL d   1       5.307  -1.129 -15.419  0.00  0.00     0.181 C 
ENDBRANCH  25  30
ENDBRANCH  21  24
ENDBRANCH  17  18
ENDBRANCH  16  17
ENDBRANCH  15  16
ENDBRANCH  14  15
ENDBRANCH  12  14
ENDBRANCH  10  11
ENDBRANCH   1   9
TORSDOF 9
