REMARK  7 active torsions:
REMARK  status: ('A' for Active; 'I' for Inactive)
REMARK    1  A    between atoms: N_2  and  C_3 
REMARK    2  A    between atoms: N_14  and  C_15 
REMARK    3  A    between atoms: C_15  and  C_16 
REMARK    4  A    between atoms: C_16  and  C_17 
REMARK    5  A    between atoms: C_17  and  C_18 
REMARK    6  A    between atoms: C_18  and  O_19 
REMARK    7  A    between atoms: O_19  and  C_20 
ROOT
ATOM      1  C   UNL d   1       9.271   6.745 -11.948  0.00  0.00     0.111 C 
ENDROOT
BRANCH   1   2
ATOM      2  N   UNL d   1       9.019   5.493 -12.678  0.00  0.00    -0.280 N 
ATOM      3  C   UNL d   1       7.782   4.862 -12.680  0.00  0.00     0.080 A 
ATOM      4  C   UNL d   1       6.572   5.126 -12.032  0.00  0.00     0.019 A 
ATOM      5  C   UNL d   1       7.833   3.742 -13.480  0.00  0.00     0.076 A 
ATOM      6  C   UNL d   1       5.522   4.212 -12.222  0.00  0.00     0.001 A 
ATOM      7  C   UNL d   1       5.606   3.070 -13.060  0.00  0.00    -0.003 A 
ATOM      8  C   UNL d   1       6.819   2.820 -13.730  0.00  0.00    -0.003 A 
ATOM      9  C   UNL d   1       7.204   1.677 -14.656  0.00  0.00     0.066 C 
ATOM     10  C   UNL d   1       8.709   1.347 -14.640  0.00  0.00     0.283 C 
ATOM     11  C   UNL d   1       9.575   2.616 -14.838  0.00  0.00     0.147 C 
ATOM     12  N   UNL d   1       9.131   3.687 -13.968  0.00  0.00    -0.278 N 
ATOM     13  C   UNL d   1       9.827   4.759 -13.485  0.00  0.00     0.332 A 
ATOM     14  O   UNL d   1      10.995   5.018 -13.759  0.00  0.00    -0.246 OA
BRANCH  10  15
ATOM     15  N   UNL d   1       8.984   0.345 -15.661  0.00  0.00     0.342 N 
ATOM     16  C   UNL d   1      10.383  -0.035 -15.736  0.00  0.00     0.328 C 
ENDBRANCH  10  15
ENDBRANCH   1   2
BRANCH   1  17
ATOM     17  C   UNL d   1       9.900   6.510 -10.567  0.00  0.00     0.027 C 
BRANCH  17  18
ATOM     18  C   UNL d   1      10.581   7.767 -10.019  0.00  0.00     0.035 C 
BRANCH  18  19
ATOM     19  C   UNL d   1       9.566   8.642  -9.261  0.00  0.00     0.149 C 
BRANCH  19  20
ATOM     20  O   UNL d   1      10.161   9.367  -8.199  0.00  0.00    -0.331 OA
BRANCH  20  21
ATOM     21  C   UNL d   1      10.530   8.696  -7.062  0.00  0.00     0.096 A 
ATOM     22  C   UNL d   1      10.948   9.460  -5.942  0.00  0.00     0.043 A 
ATOM     23  C   UNL d   1      11.402   8.790  -4.786  0.00  0.00     0.082 A 
ATOM     24  C   UNL d   1      11.482   7.383  -4.770  0.00  0.00    -0.004 A 
ATOM     25  N   UNL d   1      11.756   9.512  -3.624  0.00  0.00    -0.212 NA
ATOM     26  C   UNL d   1      11.089   6.653  -5.883  0.00  0.00    -0.001 A 
ATOM     27  C   UNL d   1      11.989   6.670  -3.546  0.00  0.00     0.038 C 
ATOM     28  C   UNL d   1      10.564   7.283  -7.006  0.00  0.00     0.024 A 
ATOM     29  C   UNL d   1      11.670   7.434  -2.267  0.00  0.00     0.095 C 
ATOM     30  C   UNL d   1      11.937   8.934  -2.427  0.00  0.00     0.256 C 
ATOM     31  O   UNL d   1      12.261   9.562  -1.452  0.00  0.00    -0.270 OA
ENDBRANCH  20  21
ENDBRANCH  19  20
ENDBRANCH  18  19
ENDBRANCH  17  18
ENDBRANCH   1  17
TORSDOF 7
