REMARK  10 active torsions:
REMARK  status: ('A' for Active; 'I' for Inactive)
REMARK    1  A    between atoms: O_2  and  C_3 
REMARK    2  A    between atoms: C_8  and  N_9 
REMARK    3  A    between atoms: N_12  and  C_13 
REMARK    4  A    between atoms: C_13  and  C_14 
REMARK    5  A    between atoms: C_14  and  C_15 
REMARK    6  A    between atoms: C_15  and  C_16 
REMARK    7  A    between atoms: C_16  and  N_17 
REMARK       I    between atoms: N_17  and  C_18 
REMARK    8  A    between atoms: C_18  and  C_20 
REMARK    9  A    between atoms: C_21  and  C_22 
REMARK   10  A    between atoms: C_25  and  C_26 
ROOT
ATOM      1  C   UNL d   1       9.328   2.871 -14.096  0.00  0.00     0.029 C 
ENDROOT
BRANCH   1   2
ATOM      2  C   UNL d   1       8.710   1.901 -15.097  0.00  0.00     0.037 C 
BRANCH   2   3
ATOM      3  C   UNL d   1       7.165   1.773 -14.985  0.00  0.00     0.251 C 
BRANCH   3   4
ATOM      4  N   UNL d   1       6.563   1.037 -16.094  0.00  0.00     0.141 N 
ATOM      5  C   UNL d   1       7.075  -0.328 -16.189  0.00  0.00     0.274 C 
ATOM      6  C   UNL d   1       6.349  -1.109 -17.301  0.00  0.00     0.137 C 
ATOM      7  N   UNL d   1       6.398  -0.367 -18.551  0.00  0.00    -0.343 N 
ATOM      8  C   UNL d   1       5.963   1.018 -18.501  0.00  0.00     0.137 C 
ATOM      9  C   UNL d   1       6.706   1.749 -17.366  0.00  0.00     0.274 C 
BRANCH   7  10
ATOM     10  C   UNL d   1       6.981  -0.913 -19.693  0.00  0.00     0.079 A 
ATOM     11  C   UNL d   1       8.390  -0.993 -19.862  0.00  0.00     0.110 A 
ATOM     12  C   UNL d   1       8.907  -1.589 -21.040  0.00  0.00     0.026 A 
ATOM     13  C   UNL d   1       8.044  -2.118 -22.017  0.00  0.00     0.002 A 
ATOM     14  C   UNL d   1       6.652  -2.044 -21.840  0.00  0.00     0.002 A 
ATOM     15  C   UNL d   1       6.126  -1.441 -20.682  0.00  0.00     0.019 A 
BRANCH  11  16
ATOM     16  O   UNL d   1       9.187  -0.447 -18.877  0.00  0.00    -0.327 OA
ATOM     17  C   UNL d   1      10.506  -0.952 -18.728  0.00  0.00     0.181 C 
ENDBRANCH  11  16
ENDBRANCH   7  10
ENDBRANCH   3   4
ENDBRANCH   2   3
ENDBRANCH   1   2
BRANCH   1  18
ATOM     18  C   UNL d   1       8.854   4.326 -14.299  0.00  0.00     0.129 C 
BRANCH  18  19
ATOM     19  N   UNL d   1       9.304   5.181 -13.215  0.00  0.00    -0.234 NA
ATOM     20  C   UNL d   1       8.787   5.148 -11.978  0.00  0.00     0.275 C 
ATOM     21  O   UNL d   1       7.854   4.408 -11.656  0.00  0.00    -0.266 OA
BRANCH  20  22
ATOM     22  C   UNL d   1       9.476   6.075 -11.105  0.00  0.00     0.062 C 
ATOM     23  C   UNL d   1       9.158   6.168  -9.800  0.00  0.00     0.005 C 
BRANCH  23  24
ATOM     24  C   UNL d   1       9.804   7.058  -8.817  0.00  0.00     0.000 A 
ATOM     25  C   UNL d   1      10.986   7.786  -9.096  0.00  0.00    -0.000 A 
ATOM     26  C   UNL d   1      11.538   8.638  -8.116  0.00  0.00     0.004 A 
ATOM     27  C   UNL d   1      10.918   8.793  -6.855  0.00  0.00     0.071 A 
ATOM     28  C   UNL d   1       9.746   8.065  -6.588  0.00  0.00     0.004 A 
ATOM     29  C   UNL d   1       9.189   7.218  -7.557  0.00  0.00    -0.000 A 
BRANCH  27  30
ATOM     30  C   UNL d   1      11.513   9.735  -5.816  0.00  0.00     0.419 C 
ATOM     31  F   UNL d   1      11.857  10.872  -6.419  0.00  0.00    -0.166 F 
ATOM     32  F   UNL d   1      10.654  10.026  -4.840  0.00  0.00    -0.166 F 
ATOM     33  F   UNL d   1      12.601   9.194  -5.269  0.00  0.00    -0.166 F 
ENDBRANCH  27  30
ENDBRANCH  23  24
ENDBRANCH  20  22
ENDBRANCH  18  19
ENDBRANCH   1  18
TORSDOF 10
