REMARK  8 active torsions:
REMARK  status: ('A' for Active; 'I' for Inactive)
REMARK    1  A    between atoms: C_6  and  C_7 
REMARK    2  A    between atoms: C_10  and  S_11 
REMARK    3  A    between atoms: S_11  and  C_12 
REMARK    4  A    between atoms: C_12  and  C_13 
REMARK    5  A    between atoms: C_13  and  C_14 
REMARK    6  A    between atoms: C_14  and  N_15 
REMARK    7  A    between atoms: C_19  and  C_20 
REMARK    8  A    between atoms: C_23  and  C_24 
ROOT
ATOM      1  N   UNL d   1       5.083  -0.296 -16.941  0.00  0.00     0.137 N 
ATOM      2  C   UNL d   1       4.212  -1.057 -16.038  0.00  0.00     0.251 C 
ATOM      3  C   UNL d   1       4.601  -0.601 -14.651  0.00  0.00     0.039 A 
ATOM      4  C   UNL d   1       5.782  -1.187 -13.906  0.00  0.00     0.008 A 
ATOM      5  C   UNL d   1       5.987  -0.018 -14.808  0.00  0.00     0.052 A 
ATOM      6  C   UNL d   1       6.368  -0.233 -16.256  0.00  0.00     0.254 C 
ENDROOT
BRANCH   1   7
ATOM      7  C   UNL d   1       5.210  -0.912 -18.260  0.00  0.00     0.251 C 
BRANCH   7   8
ATOM      8  C   UNL d   1       6.417  -0.423 -19.085  0.00  0.00     0.047 C 
BRANCH   8   9
ATOM      9  C   UNL d   1       7.770  -1.110 -18.757  0.00  0.00     0.067 C 
BRANCH   9  10
ATOM     10  S   UNL d   1       9.150  -0.419 -19.744  0.00  0.00    -0.075 SA
BRANCH  10  11
ATOM     11  C   UNL d   1       9.334   1.091 -18.854  0.00  0.00     0.193 A 
ATOM     12  N   UNL d   1       8.605   2.174 -19.121  0.00  0.00    -0.122 NA
ATOM     13  N   UNL d   1       9.039   3.140 -18.250  0.00  0.00    -0.126 NA
ATOM     14  C   UNL d   1       9.985   2.563 -17.500  0.00  0.00     0.191 A 
ATOM     15  N   UNL d   1      10.178   1.266 -17.809  0.00  0.00    -0.287 N 
ATOM     16  C   UNL d   1      11.102   0.328 -17.189  0.00  0.00     0.134 C 
BRANCH  14  17
ATOM     17  C   UNL d   1      10.709   3.326 -16.485  0.00  0.00     0.151 A 
ATOM     18  C   UNL d   1      10.939   4.675 -16.308  0.00  0.00     0.087 A 
ATOM     19  C   UNL d   1      10.524   5.835 -17.153  0.00  0.00     0.054 C 
ATOM     20  N   UNL d   1      11.635   4.854 -15.125  0.00  0.00    -0.221 NA
ATOM     21  C   UNL d   1      11.783   3.623 -14.644  0.00  0.00     0.225 A 
ATOM     22  O   UNL d   1      11.277   2.650 -15.442  0.00  0.00    -0.282 OA
ENDBRANCH  14  17
ENDBRANCH  10  11
ENDBRANCH   9  10
ENDBRANCH   8   9
ENDBRANCH   7   8
ENDBRANCH   1   7
BRANCH   5  23
ATOM     23  C   UNL d   1       6.365   1.327 -14.217  0.00  0.00    -0.019 A 
ATOM     24  C   UNL d   1       7.561   1.994 -14.578  0.00  0.00     0.025 A 
ATOM     25  C   UNL d   1       7.887   3.270 -14.070  0.00  0.00     0.144 A 
ATOM     26  C   UNL d   1       7.025   3.918 -13.163  0.00  0.00     0.099 A 
ATOM     27  F   UNL d   1       9.028   3.870 -14.446  0.00  0.00    -0.204 F 
ATOM     28  C   UNL d   1       5.843   3.246 -12.739  0.00  0.00     0.006 A 
ATOM     29  C   UNL d   1       5.532   1.979 -13.229  0.00  0.00    -0.004 A 
BRANCH  26  30
ATOM     30  C   UNL d   1       7.404   5.269 -12.583  0.00  0.00     0.421 C 
ATOM     31  F   UNL d   1       7.993   5.054 -11.407  0.00  0.00    -0.166 F 
ATOM     32  F   UNL d   1       8.242   5.989 -13.339  0.00  0.00    -0.166 F 
ATOM     33  F   UNL d   1       6.287   5.976 -12.416  0.00  0.00    -0.166 F 
ENDBRANCH  26  30
ENDBRANCH   5  23
TORSDOF 8
