REMARK  6 active torsions:
REMARK  status: ('A' for Active; 'I' for Inactive)
REMARK    1  A    between atoms: C_7  and  O_8 
REMARK    2  A    between atoms: O_8  and  C_9 
REMARK    3  A    between atoms: C_9  and  C_10 
REMARK    4  A    between atoms: C_10  and  C_11 
REMARK    5  A    between atoms: C_11  and  C_12 
REMARK    6  A    between atoms: C_12  and  N_13 
ROOT
ATOM      1  C   UNL d   1       9.579   4.950  -9.478  0.00  0.00     0.149 C 
ENDROOT
BRANCH   1   2
ATOM      2  O   UNL d   1       9.645   5.580 -10.749  0.00  0.00    -0.330 OA
BRANCH   2   3
ATOM      3  C   UNL d   1       8.454   5.725 -11.423  0.00  0.00     0.104 A 
ATOM      4  C   UNL d   1       8.225   6.947 -12.090  0.00  0.00     0.080 A 
ATOM      5 CL   UNL d   1       9.382   8.222 -12.029  0.00  0.00    -0.080 Cl
ATOM      6  C   UNL d   1       6.998   7.179 -12.733  0.00  0.00     0.013 A 
ATOM      7  C   UNL d   1       5.999   6.185 -12.716  0.00  0.00     0.001 A 
ATOM      8  C   UNL d   1       6.228   4.954 -12.086  0.00  0.00     0.002 A 
ATOM      9  C   UNL d   1       7.450   4.732 -11.435  0.00  0.00     0.025 A 
ENDBRANCH   2   3
ENDBRANCH   1   2
BRANCH   1  10
ATOM     10  C   UNL d   1       8.902   5.854  -8.441  0.00  0.00     0.035 C 
BRANCH  10  11
ATOM     11  C   UNL d   1       9.903   6.845  -7.854  0.00  0.00     0.038 C 
BRANCH  11  12
ATOM     12  C   UNL d   1       9.264   7.725  -6.769  0.00  0.00     0.251 C 
BRANCH  12  13
ATOM     13  N   UNL d   1      10.216   8.408  -5.898  0.00  0.00     0.141 N 
ATOM     14  C   UNL d   1      10.993   7.498  -5.056  0.00  0.00     0.288 C 
ATOM     15  C   UNL d   1      11.876   8.260  -4.056  0.00  0.00     0.325 C 
ATOM     16  N   UNL d   1      12.719   9.216  -4.772  0.00  0.00     0.343 N 
ATOM     17  C   UNL d   1      11.965  10.131  -5.635  0.00  0.00     0.325 C 
ATOM     18  C   UNL d   1      11.068   9.353  -6.603  0.00  0.00     0.288 C 
ENDBRANCH  12  13
ENDBRANCH  11  12
ENDBRANCH  10  11
ENDBRANCH   1  10
TORSDOF 6
