REMARK  7 active torsions:
REMARK  status: ('A' for Active; 'I' for Inactive)
REMARK    1  A    between atoms: C_2  and  C_3 
REMARK    2  A    between atoms: C_3  and  N_4 
REMARK    3  A    between atoms: N_4  and  C_5 
REMARK    4  A    between atoms: N_4  and  C_24 
REMARK    5  A    between atoms: C_5  and  C_6 
REMARK    6  A    between atoms: C_6  and  N_7 
REMARK    7  A    between atoms: N_10  and  C_11 
ROOT
ATOM      1  N   UNL d   1       9.103   6.412 -12.737  0.00  0.00     0.143 N 
ATOM      2  C   UNL d   1       9.799   5.142 -12.699  0.00  0.00     0.274 C 
ATOM      3  C   UNL d   1       8.879   3.961 -12.264  0.00  0.00     0.137 C 
ATOM      4  N   UNL d   1       7.649   3.943 -13.046  0.00  0.00    -0.344 N 
ATOM      5  C   UNL d   1       6.903   5.179 -13.131  0.00  0.00     0.137 C 
ATOM      6  C   UNL d   1       7.931   6.258 -13.581  0.00  0.00     0.274 C 
ENDROOT
BRANCH   1   7
ATOM      7  C   UNL d   1       8.686   6.886 -11.448  0.00  0.00     0.274 C 
BRANCH   7   8
ATOM      8  C   UNL d   1       9.808   7.217 -10.412  0.00  0.00     0.133 C 
BRANCH   8   9
ATOM      9  N   UNL d   1       9.364   7.242  -9.010  0.00  0.00    -0.368 N 
BRANCH   9  10
ATOM     10  C   UNL d   1       8.492   6.091  -8.632  0.00  0.00     0.097 C 
BRANCH  10  11
ATOM     11  C   UNL d   1       9.230   4.753  -8.650  0.00  0.00     0.024 C 
ATOM     12  C   UNL d   1       8.270   3.585  -8.511  0.00  0.00     0.002 C 
ENDBRANCH  10  11
ENDBRANCH   9  10
BRANCH   9  13
ATOM     13  C   UNL d   1      10.421   7.623  -8.046  0.00  0.00     0.082 C 
ATOM     14  C   UNL d   1      10.106   7.189  -6.587  0.00  0.00     0.048 C 
ATOM     15  C   UNL d   1      11.056   7.672  -5.553  0.00  0.00    -0.022 A 
ATOM     16  C   UNL d   1      11.832   8.817  -5.756  0.00  0.00    -0.026 A 
ATOM     17  C   UNL d   1      11.127   6.924  -4.380  0.00  0.00     0.023 A 
ATOM     18  C   UNL d   1      11.848   9.525  -7.096  0.00  0.00     0.028 C 
ATOM     19  C   UNL d   1      12.666   9.245  -4.704  0.00  0.00    -0.003 A 
ATOM     20  C   UNL d   1      10.677   9.144  -8.035  0.00  0.00     0.027 C 
ATOM     21  C   UNL d   1      12.650   8.545  -3.474  0.00  0.00     0.027 A 
ATOM     22  C   UNL d   1      11.917   7.379  -3.312  0.00  0.00     0.131 A 
ATOM     23  O   UNL d   1      11.922   6.696  -2.136  0.00  0.00    -0.190 OA
ENDBRANCH   9  13
ENDBRANCH   8   9
ENDBRANCH   7   8
ENDBRANCH   1   7
BRANCH   4  24
ATOM     24  C   UNL d   1       7.189   2.790 -13.722  0.00  0.00     0.058 A 
ATOM     25  C   UNL d   1       8.051   2.030 -14.581  0.00  0.00     0.035 A 
ATOM     26  C   UNL d   1       7.613   0.801 -15.139  0.00  0.00     0.108 A 
ATOM     27  C   UNL d   1       9.361   2.469 -14.895  0.00  0.00     0.005 A 
ATOM     28  C   UNL d   1       6.314   0.332 -14.817  0.00  0.00     0.149 A 
ATOM     29  N   UNL d   1       8.414   0.060 -15.969  0.00  0.00    -0.242 NA
ATOM     30  C   UNL d   1       5.467   1.083 -13.969  0.00  0.00     0.030 A 
ATOM     31  O   UNL d   1       5.865  -0.847 -15.308  0.00  0.00    -0.189 OA
ATOM     32  C   UNL d   1       5.893   2.317 -13.433  0.00  0.00     0.019 A 
ATOM     33  C   UNL d   1       9.661   0.499 -16.248  0.00  0.00     0.099 A 
ATOM     34  C   UNL d   1      10.178   1.686 -15.723  0.00  0.00     0.021 A 
ENDBRANCH   4  24
TORSDOF 7
