REMARK  7 active torsions:
REMARK  status: ('A' for Active; 'I' for Inactive)
REMARK    1  A    between atoms: S_2  and  N_4 
REMARK    2  A    between atoms: S_2  and  C_28 
REMARK    3  A    between atoms: N_4  and  C_5 
REMARK    4  A    between atoms: C_8  and  C_9 
REMARK    5  A    between atoms: C_9  and  C_10 
REMARK    6  A    between atoms: C_10  and  N_11 
REMARK    7  A    between atoms: N_14  and  C_15 
ROOT
ATOM      1  C   UNL d   1       8.321   4.809 -11.716  0.00  0.00     0.035 C 
ENDROOT
BRANCH   1   2
ATOM      2  C   UNL d   1       8.698   3.910 -12.908  0.00  0.00     0.002 C 
ATOM      3  C   UNL d   1       7.468   3.688 -13.805  0.00  0.00     0.002 C 
ATOM      4  C   UNL d   1       7.787   2.790 -15.015  0.00  0.00     0.025 C 
ATOM      5  C   UNL d   1       8.976   3.363 -15.815  0.00  0.00     0.116 C 
ATOM      6  C   UNL d   1      10.185   3.590 -14.897  0.00  0.00     0.025 C 
ATOM      7  C   UNL d   1       9.853   4.496 -13.733  0.00  0.00     0.002 C 
BRANCH   5   8
ATOM      8  N   UNL d   1       9.326   2.478 -16.933  0.00  0.00    -0.187 NA
BRANCH   8   9
ATOM      9  S   UNL d   1       9.798   3.141 -18.461  0.00  0.00     0.283 S 
ATOM     10  O   UNL d   1      10.343   2.038 -19.269  0.00  0.00    -0.199 OA
ATOM     11  O   UNL d   1       8.667   3.934 -18.956  0.00  0.00    -0.199 OA
BRANCH   9  12
ATOM     12  C   UNL d   1      11.132   4.253 -18.040  0.00  0.00     0.124 A 
ATOM     13  C   UNL d   1      12.271   3.755 -17.379  0.00  0.00     0.112 A 
ATOM     14  N   UNL d   1      13.277   4.549 -16.949  0.00  0.00    -0.242 NA
ATOM     15  C   UNL d   1      13.161   5.879 -17.146  0.00  0.00     0.099 A 
ATOM     16  C   UNL d   1      12.063   6.474 -17.798  0.00  0.00     0.021 A 
ATOM     17  C   UNL d   1      11.020   5.642 -18.255  0.00  0.00     0.016 A 
ENDBRANCH   9  12
ENDBRANCH   8   9
ENDBRANCH   5   8
ENDBRANCH   1   2
BRANCH   1  18
ATOM     18  C   UNL d   1       9.313   4.691 -10.571  0.00  0.00     0.250 C 
BRANCH  18  19
ATOM     19  N   UNL d   1       9.060   5.606  -9.459  0.00  0.00     0.141 N 
ATOM     20  C   UNL d   1       9.936   5.215  -8.364  0.00  0.00     0.274 C 
ATOM     21  C   UNL d   1       9.670   6.061  -7.128  0.00  0.00     0.138 C 
ATOM     22  N   UNL d   1       9.918   7.457  -7.450  0.00  0.00    -0.329 N 
ATOM     23  C   UNL d   1       9.190   7.897  -8.626  0.00  0.00     0.138 C 
ATOM     24  C   UNL d   1       9.453   6.972  -9.826  0.00  0.00     0.274 C 
BRANCH  22  25
ATOM     25  C   UNL d   1      10.637   8.330  -6.653  0.00  0.00     0.148 A 
ATOM     26  C   UNL d   1      11.158   8.011  -5.336  0.00  0.00     0.042 A 
ATOM     27  C   UNL d   1      11.920   9.122  -4.866  0.00  0.00     0.050 A 
ATOM     28  C   UNL d   1      11.079   6.879  -4.471  0.00  0.00     0.004 A 
ATOM     29  S   UNL d   1      11.857  10.381  -6.060  0.00  0.00     0.015 SA
ATOM     30  C   UNL d   1      12.589   9.127  -3.623  0.00  0.00     0.008 A 
ATOM     31  N   UNL d   1      10.923   9.527  -7.136  0.00  0.00    -0.192 NA
ATOM     32  C   UNL d   1      12.518   7.986  -2.805  0.00  0.00     0.001 A 
ATOM     33  C   UNL d   1      11.773   6.873  -3.236  0.00  0.00     0.000 A 
ENDBRANCH  22  25
ENDBRANCH  18  19
ENDBRANCH   1  18
TORSDOF 7
