REMARK  8 active torsions:
REMARK  status: ('A' for Active; 'I' for Inactive)
REMARK    1  A    between atoms: O_2  and  C_3 
REMARK    2  A    between atoms: C_8  and  N_9 
REMARK    3  A    between atoms: N_12  and  C_13 
REMARK    4  A    between atoms: C_13  and  C_14 
REMARK    5  A    between atoms: N_16  and  C_17 
REMARK    6  A    between atoms: C_20  and  O_21 
REMARK    7  A    between atoms: O_21  and  C_22 
REMARK    8  A    between atoms: C_22  and  C_23 
ROOT
ATOM      1  C   UNL d   1       8.911   5.327 -12.338  0.00  0.00     0.135 A 
ATOM      2  C   UNL d   1       9.457   6.370 -11.640  0.00  0.00     0.121 A 
ATOM      3  N   UNL d   1       9.267   6.020 -10.313  0.00  0.00    -0.209 N 
ATOM      4  N   UNL d   1       8.621   4.829 -10.225  0.00  0.00    -0.060 NA
ATOM      5  N   UNL d   1       8.400   4.410 -11.431  0.00  0.00    -0.131 NA
ENDROOT
BRANCH   1   6
ATOM      6  C   UNL d   1       8.805   5.098 -13.814  0.00  0.00     0.299 C 
BRANCH   6   7
ATOM      7  N   UNL d   1      10.010   4.788 -14.590  0.00  0.00     0.147 N 
ATOM      8  C   UNL d   1       9.687   4.775 -16.025  0.00  0.00     0.275 C 
ATOM      9  C   UNL d   1      10.940   4.502 -16.880  0.00  0.00     0.137 C 
ATOM     10  N   UNL d   1      11.562   3.263 -16.449  0.00  0.00    -0.343 N 
ATOM     11  C   UNL d   1      11.794   3.132 -15.020  0.00  0.00     0.137 C 
ATOM     12  C   UNL d   1      10.513   3.462 -14.221  0.00  0.00     0.275 C 
BRANCH  10  13
ATOM     13  C   UNL d   1      11.788   2.203 -17.352  0.00  0.00     0.079 A 
ATOM     14  C   UNL d   1      11.252   0.910 -17.128  0.00  0.00     0.110 A 
ATOM     15  C   UNL d   1      11.514  -0.120 -18.070  0.00  0.00     0.026 A 
ATOM     16  C   UNL d   1      12.301   0.131 -19.207  0.00  0.00     0.002 A 
ATOM     17  C   UNL d   1      12.822   1.415 -19.428  0.00  0.00     0.002 A 
ATOM     18  C   UNL d   1      12.558   2.450 -18.508  0.00  0.00     0.019 A 
BRANCH  14  19
ATOM     19  O   UNL d   1      10.495   0.724 -15.993  0.00  0.00    -0.327 OA
ATOM     20  C   UNL d   1       9.665  -0.415 -15.918  0.00  0.00     0.181 C 
ENDBRANCH  14  19
ENDBRANCH  10  13
ENDBRANCH   6   7
ENDBRANCH   1   6
BRANCH   3  21
ATOM     21  C   UNL d   1       9.642   6.736  -9.140  0.00  0.00     0.085 A 
ATOM     22  C   UNL d   1      10.589   7.782  -9.216  0.00  0.00     0.021 A 
ATOM     23  C   UNL d   1      10.957   8.507  -8.064  0.00  0.00     0.026 A 
ATOM     24  C   UNL d   1      10.396   8.188  -6.805  0.00  0.00     0.094 A 
ATOM     25  C   UNL d   1       9.453   7.145  -6.733  0.00  0.00     0.026 A 
ATOM     26  C   UNL d   1       9.074   6.426  -7.882  0.00  0.00     0.021 A 
BRANCH  24  27
ATOM     27  O   UNL d   1      10.706   8.831  -5.626  0.00  0.00    -0.328 OA
BRANCH  27  28
ATOM     28  C   UNL d   1      11.918   9.574  -5.555  0.00  0.00     0.187 C 
BRANCH  28  29
ATOM     29  C   UNL d   1      12.459   9.494  -4.123  0.00  0.00     0.226 C 
ATOM     30  F   UNL d   1      12.658   8.223  -3.770  0.00  0.00    -0.232 F 
ENDBRANCH  28  29
ENDBRANCH  27  28
ENDBRANCH  24  27
ENDBRANCH   3  21
TORSDOF 8
