REMARK  3 active torsions:
REMARK  status: ('A' for Active; 'I' for Inactive)
REMARK       I    between atoms: C_2  and  N_4 
REMARK    1  A    between atoms: N_4  and  C_5 
REMARK    2  A    between atoms: C_8  and  C_9 
REMARK    3  A    between atoms: C_9  and  N_10 
ROOT
ATOM      1  N   UNL d   1       7.241   3.613 -12.876  0.00  0.00     0.142 N 
ATOM      2  C   UNL d   1       8.322   3.602 -13.875  0.00  0.00     0.255 C 
ATOM      3  C   UNL d   1       8.149   2.207 -14.466  0.00  0.00     0.062 C 
ATOM      4  C   UNL d   1       8.818   1.849 -15.773  0.00  0.00     0.003 A 
ATOM      5  C   UNL d   1      10.105   2.323 -16.104  0.00  0.00     0.008 A 
ATOM      6  C   UNL d   1      10.699   1.942 -17.325  0.00  0.00     0.068 A 
ATOM      7  C   UNL d   1      12.016   2.438 -17.679  0.00  0.00     0.101 C 
ATOM      8  N   UNL d   1      13.065   2.836 -17.962  0.00  0.00    -0.191 NA
ATOM      9  C   UNL d   1      10.008   1.087 -18.208  0.00  0.00     0.012 A 
ATOM     10  C   UNL d   1       8.724   0.613 -17.874  0.00  0.00     0.025 A 
ATOM     11  C   UNL d   1       8.120   0.984 -16.656  0.00  0.00     0.090 A 
ATOM     12  O   UNL d   1       6.845   0.509 -16.388  0.00  0.00    -0.331 OA
ATOM     13  C   UNL d   1       6.260   0.775 -15.104  0.00  0.00     0.151 C 
ATOM     14  C   UNL d   1       6.660   2.173 -14.642  0.00  0.00     0.070 C 
ATOM     15  C   UNL d   1       6.133   2.773 -13.342  0.00  0.00     0.254 C 
ENDROOT
BRANCH   1  16
ATOM     16  C   UNL d   1       6.813   4.945 -12.472  0.00  0.00     0.277 C 
BRANCH  16  17
ATOM     17  C   UNL d   1       7.904   5.680 -11.724  0.00  0.00     0.011 A 
ATOM     18  C   UNL d   1       8.490   6.844 -12.277  0.00  0.00    -0.001 A 
ATOM     19  C   UNL d   1       9.447   7.552 -11.528  0.00  0.00     0.019 A 
ATOM     20  C   UNL d   1       9.865   7.083 -10.252  0.00  0.00     0.084 A 
ATOM     21  C   UNL d   1       9.320   5.886  -9.742  0.00  0.00     0.019 A 
ATOM     22  C   UNL d   1       8.319   5.221 -10.467  0.00  0.00    -0.001 A 
BRANCH  20  23
ATOM     23  N   UNL d   1      10.838   7.838  -9.539  0.00  0.00    -0.212 NA
ATOM     24  C   UNL d   1      11.004   8.006  -8.210  0.00  0.00     0.256 C 
ATOM     25  C   UNL d   1      10.049   7.362  -7.194  0.00  0.00     0.100 C 
ATOM     26  O   UNL d   1      11.916   8.718  -7.792  0.00  0.00    -0.270 OA
ENDBRANCH  20  23
ENDBRANCH  16  17
ENDBRANCH   1  16
TORSDOF 3
