REMARK  6 active torsions:
REMARK  status: ('A' for Active; 'I' for Inactive)
REMARK    1  A    between atoms: O_2  and  C_3 
REMARK       I    between atoms: C_3  and  N_5 
REMARK    2  A    between atoms: N_5  and  C_6 
REMARK    3  A    between atoms: C_9  and  C_10 
REMARK    4  A    between atoms: C_10  and  C_11 
REMARK    5  A    between atoms: C_11  and  N_12 
REMARK    6  A    between atoms: N_15  and  C_16 
ROOT
ATOM      1  N   UNL d   1       7.984   5.226 -11.706  0.00  0.00     0.141 N 
ATOM      2  C   UNL d   1       6.705   4.508 -11.709  0.00  0.00     0.274 C 
ATOM      3  C   UNL d   1       6.264   4.210 -13.149  0.00  0.00     0.137 C 
ATOM      4  N   UNL d   1       7.306   3.474 -13.862  0.00  0.00    -0.343 N 
ATOM      5  C   UNL d   1       8.636   4.070 -13.798  0.00  0.00     0.137 C 
ATOM      6  C   UNL d   1       9.012   4.389 -12.337  0.00  0.00     0.274 C 
ENDROOT
BRANCH   1   7
ATOM      7  C   UNL d   1       8.334   5.552 -10.324  0.00  0.00     0.250 C 
BRANCH   7   8
ATOM      8  C   UNL d   1       9.493   6.565 -10.258  0.00  0.00     0.035 C 
BRANCH   8   9
ATOM      9  C   UNL d   1       9.639   7.252  -8.889  0.00  0.00     0.002 C 
ATOM     10  C   UNL d   1      10.094   6.288  -7.778  0.00  0.00     0.002 C 
ATOM     11  C   UNL d   1      10.227   7.006  -6.426  0.00  0.00     0.025 C 
ATOM     12  C   UNL d   1      11.181   8.214  -6.517  0.00  0.00     0.109 C 
ATOM     13  C   UNL d   1      10.743   9.166  -7.637  0.00  0.00     0.025 C 
ATOM     14  C   UNL d   1      10.613   8.444  -8.985  0.00  0.00     0.002 C 
BRANCH  12  15
ATOM     15  N   UNL d   1      11.246   8.944  -5.248  0.00  0.00    -0.214 NA
ATOM     16  C   UNL d   1      11.858   8.461  -4.106  0.00  0.00     0.384 C 
ATOM     17  O   UNL d   1      12.361   7.349  -3.960  0.00  0.00    -0.236 OA
BRANCH  16  18
ATOM     18  O   UNL d   1      11.794   9.399  -3.158  0.00  0.00    -0.281 OA
ATOM     19  C   UNL d   1      12.349   9.118  -1.883  0.00  0.00     0.186 C 
ENDBRANCH  16  18
ENDBRANCH  12  15
ENDBRANCH   8   9
ENDBRANCH   7   8
ENDBRANCH   1   7
BRANCH   4  20
ATOM     20  C   UNL d   1       7.056   2.224 -14.475  0.00  0.00     0.081 A 
ATOM     21  C   UNL d   1       7.772   1.780 -15.615  0.00  0.00     0.135 A 
ATOM     22  C   UNL d   1       7.481   0.577 -16.231  0.00  0.00     0.121 A 
ATOM     23  O   UNL d   1       8.774   2.394 -16.305  0.00  0.00    -0.298 OA
ATOM     24  C   UNL d   1       6.463  -0.271 -15.768  0.00  0.00     0.026 A 
ATOM     25  O   UNL d   1       8.298   0.394 -17.301  0.00  0.00    -0.299 OA
ATOM     26  C   UNL d   1       5.745   0.131 -14.626  0.00  0.00     0.004 A 
ATOM     27  C   UNL d   1       6.043   1.357 -13.988  0.00  0.00     0.019 A 
ATOM     28  C   UNL d   1       9.122   1.526 -17.354  0.00  0.00     0.304 A 
ENDBRANCH   4  20
TORSDOF 6
