REMARK  6 active torsions:
REMARK  status: ('A' for Active; 'I' for Inactive)
REMARK    1  A    between atoms: C_5  and  C_6 
REMARK    2  A    between atoms: N_14  and  C_15 
REMARK    3  A    between atoms: C_15  and  C_16 
REMARK    4  A    between atoms: C_18  and  C_19 
REMARK    5  A    between atoms: C_19  and  N_20 
REMARK       I    between atoms: N_20  and  C_21 
REMARK    6  A    between atoms: C_21  and  C_23 
ROOT
ATOM      1  C   UNL d   1       8.651   2.959 -15.140  0.00  0.00     0.035 A 
ATOM      2  C   UNL d   1       9.699   1.879 -15.060  0.00  0.00     0.004 A 
ATOM      3  C   UNL d   1       8.571   1.776 -16.061  0.00  0.00     0.026 A 
ENDROOT
BRANCH   1   4
ATOM      4  C   UNL d   1       7.609   3.093 -14.076  0.00  0.00     0.250 C 
BRANCH   4   5
ATOM      5  N   UNL d   1       7.396   4.424 -13.583  0.00  0.00     0.140 N 
ATOM      6  C   UNL d   1       6.117   4.538 -12.881  0.00  0.00     0.249 C 
ATOM      7  C   UNL d   1       5.999   3.579 -11.664  0.00  0.00     0.038 C 
ATOM      8  C   UNL d   1       5.909   5.999 -12.410  0.00  0.00     0.176 C 
ATOM      9  O   UNL d   1       6.986   6.399 -11.638  0.00  0.00    -0.348 OA
ATOM     10  C   UNL d   1       8.242   6.317 -12.216  0.00  0.00     0.172 C 
ATOM     11  C   UNL d   1       8.476   4.869 -12.701  0.00  0.00     0.284 C 
BRANCH  10  12
ATOM     12  C   UNL d   1       9.246   6.777 -11.192  0.00  0.00     0.026 A 
ATOM     13  C   UNL d   1       9.763   8.087 -11.237  0.00  0.00     0.098 A 
ATOM     14  N   UNL d   1      10.668   8.564 -10.351  0.00  0.00    -0.230 NA
ATOM     15  C   UNL d   1      11.092   7.728  -9.381  0.00  0.00     0.151 A 
ATOM     16  C   UNL d   1      10.605   6.429  -9.211  0.00  0.00     0.033 A 
ATOM     17  N   UNL d   1      12.102   8.198  -8.537  0.00  0.00    -0.080 NA
ATOM     18  C   UNL d   1       9.643   5.944 -10.115  0.00  0.00     0.002 A 
ENDBRANCH  10  12
ENDBRANCH   4   5
ENDBRANCH   1   4
BRANCH   3  19
ATOM     19  C   UNL d   1       7.480   0.718 -15.892  0.00  0.00     0.129 C 
BRANCH  19  20
ATOM     20  N   UNL d   1       7.373  -0.216 -16.989  0.00  0.00    -0.233 NA
ATOM     21  C   UNL d   1       6.909   0.092 -18.206  0.00  0.00     0.293 C 
ATOM     22  O   UNL d   1       6.559   1.232 -18.547  0.00  0.00    -0.264 OA
BRANCH  21  23
ATOM     23  C   UNL d   1       6.850  -1.030 -19.143  0.00  0.00     0.139 A 
ATOM     24  N   UNL d   1       6.149  -0.893 -20.323  0.00  0.00    -0.241 NA
ATOM     25  C   UNL d   1       6.247  -2.037 -21.085  0.00  0.00     0.082 A 
ATOM     26  C   UNL d   1       7.048  -2.937 -20.321  0.00  0.00     0.019 A 
ATOM     27  C   UNL d   1       5.736  -2.384 -22.344  0.00  0.00     0.019 A 
ATOM     28  C   UNL d   1       7.407  -2.286 -19.096  0.00  0.00     0.025 A 
ATOM     29  C   UNL d   1       7.322  -4.205 -20.885  0.00  0.00     0.002 A 
ATOM     30  C   UNL d   1       6.822  -4.556 -22.153  0.00  0.00     0.000 A 
ATOM     31  C   UNL d   1       6.028  -3.649 -22.882  0.00  0.00     0.002 A 
ENDBRANCH  21  23
ENDBRANCH  19  20
ENDBRANCH   3  19
TORSDOF 6
