REMARK  7 active torsions:
REMARK  status: ('A' for Active; 'I' for Inactive)
REMARK    1  A    between atoms: C_4  and  C_5 
REMARK    2  A    between atoms: N_13  and  C_14 
REMARK    3  A    between atoms: C_14  and  C_15 
REMARK    4  A    between atoms: C_15  and  C_16 
REMARK    5  A    between atoms: C_16  and  S_17 
REMARK    6  A    between atoms: S_17  and  C_18 
REMARK    7  A    between atoms: C_21  and  C_22 
ROOT
ATOM      1  C   UNL d   1       8.612   4.434 -12.328  0.00  0.00     0.020 A 
ATOM      2  C   UNL d   1       7.312   4.356 -12.855  0.00  0.00     0.001 A 
ATOM      3  C   UNL d   1       7.033   3.461 -13.907  0.00  0.00    -0.004 A 
ATOM      4  C   UNL d   1       8.055   2.644 -14.444  0.00  0.00    -0.024 A 
ATOM      5  C   UNL d   1       9.362   2.727 -13.919  0.00  0.00    -0.024 A 
ATOM      6  C   UNL d   1       9.632   3.628 -12.866  0.00  0.00    -0.003 A 
ATOM      7  C   UNL d   1      10.472   1.830 -14.440  0.00  0.00     0.061 C 
ATOM      8  C   UNL d   1      10.804   2.069 -15.918  0.00  0.00     0.255 C 
ATOM      9  N   UNL d   1       9.897   1.384 -16.842  0.00  0.00     0.138 N 
ATOM     10  C   UNL d   1       8.552   1.968 -16.862  0.00  0.00     0.255 C 
ATOM     11  C   UNL d   1       7.736   1.691 -15.585  0.00  0.00     0.061 C 
ENDROOT
BRANCH   9  12
ATOM     12  C   UNL d   1      10.462   1.450 -18.192  0.00  0.00     0.251 C 
BRANCH  12  13
ATOM     13  C   UNL d   1      11.617   0.447 -18.377  0.00  0.00     0.047 C 
BRANCH  13  14
ATOM     14  C   UNL d   1      11.873   0.133 -19.856  0.00  0.00     0.067 C 
BRANCH  14  15
ATOM     15  S   UNL d   1      13.393  -0.840 -20.081  0.00  0.00    -0.075 SA
BRANCH  15  16
ATOM     16  C   UNL d   1      14.522   0.471 -20.410  0.00  0.00     0.193 A 
ATOM     17  N   UNL d   1      15.502   0.371 -21.328  0.00  0.00    -0.285 N 
ATOM     18  C   UNL d   1      16.059   1.606 -21.273  0.00  0.00     0.239 A 
ATOM     19  C   UNL d   1      15.837  -0.789 -22.134  0.00  0.00     0.134 C 
ATOM     20  N   UNL d   1      15.476   2.401 -20.370  0.00  0.00    -0.124 NA
ATOM     21  N   UNL d   1      14.485   1.651 -19.791  0.00  0.00    -0.122 NA
BRANCH  18  22
ATOM     22  C   UNL d   1      17.271   2.043 -22.053  0.00  0.00     0.453 C 
ATOM     23  F   UNL d   1      17.249   1.594 -23.306  0.00  0.00    -0.163 F 
ATOM     24  F   UNL d   1      17.347   3.374 -22.092  0.00  0.00    -0.163 F 
ATOM     25  F   UNL d   1      18.370   1.587 -21.463  0.00  0.00    -0.163 F 
ENDBRANCH  18  22
ENDBRANCH  15  16
ENDBRANCH  14  15
ENDBRANCH  13  14
ENDBRANCH  12  13
ENDBRANCH   9  12
BRANCH   1  26
ATOM     26  C   UNL d   1       8.900   5.350 -11.225  0.00  0.00     0.110 A 
ATOM     27  C   UNL d   1       8.665   5.191  -9.832  0.00  0.00     0.044 A 
ATOM     28  C   UNL d   1       9.114   6.359  -9.290  0.00  0.00     0.105 A 
ATOM     29  C   UNL d   1       9.148   6.893  -7.896  0.00  0.00     0.061 C 
ATOM     30  O   UNL d   1       9.618   7.161 -10.261  0.00  0.00    -0.215 OA
ATOM     31  N   UNL d   1       9.461   6.514 -11.493  0.00  0.00    -0.127 NA
ENDBRANCH   1  26
TORSDOF 7
