REMARK  8 active torsions:
REMARK  status: ('A' for Active; 'I' for Inactive)
REMARK    1  A    between atoms: O_2  and  C_3 
REMARK    2  A    between atoms: C_6  and  C_7 
REMARK    3  A    between atoms: C_7  and  C_8 
REMARK       I    between atoms: C_8  and  N_10 
REMARK    4  A    between atoms: N_10  and  C_11 
REMARK    5  A    between atoms: C_14  and  C_15 
REMARK    6  A    between atoms: C_15  and  C_16 
REMARK    7  A    between atoms: C_16  and  N_17 
REMARK    8  A    between atoms: N_20  and  C_21 
ROOT
ATOM      1  C   UNL d   1       8.799   2.706 -15.438  0.00  0.00     0.106 C 
ATOM      2  C   UNL d   1       7.524   2.777 -14.578  0.00  0.00     0.024 C 
ATOM      3  C   UNL d   1       7.533   4.019 -13.684  0.00  0.00     0.002 C 
ATOM      4  C   UNL d   1       8.790   4.080 -12.800  0.00  0.00     0.002 C 
ATOM      5  C   UNL d   1      10.061   4.010 -13.666  0.00  0.00     0.002 C 
ATOM      6  C   UNL d   1      10.060   2.761 -14.564  0.00  0.00     0.024 C 
ENDROOT
BRANCH   4   7
ATOM      7  C   UNL d   1       8.772   5.324 -11.887  0.00  0.00     0.035 C 
BRANCH   7   8
ATOM      8  C   UNL d   1       9.245   5.007 -10.455  0.00  0.00     0.250 C 
BRANCH   8   9
ATOM      9  N   UNL d   1       9.165   6.181  -9.594  0.00  0.00     0.141 N 
ATOM     10  C   UNL d   1      10.295   7.089  -9.838  0.00  0.00     0.274 C 
ATOM     11  C   UNL d   1      10.184   8.338  -8.945  0.00  0.00     0.138 C 
ATOM     12  N   UNL d   1      10.060   7.928  -7.544  0.00  0.00    -0.330 N 
ATOM     13  C   UNL d   1       8.975   7.001  -7.268  0.00  0.00     0.138 C 
ATOM     14  C   UNL d   1       9.151   5.772  -8.182  0.00  0.00     0.274 C 
BRANCH  12  15
ATOM     15  C   UNL d   1      10.908   8.429  -6.539  0.00  0.00     0.142 A 
ATOM     16  C   UNL d   1      11.252   7.726  -5.343  0.00  0.00     0.059 A 
ATOM     17  C   UNL d   1      12.121   8.365  -4.429  0.00  0.00     0.104 A 
ATOM     18  C   UNL d   1      11.001   6.463  -4.742  0.00  0.00     0.032 A 
ATOM     19  C   UNL d   1      12.671   9.584  -4.690  0.00  0.00     0.045 A 
ATOM     20  O   UNL d   1      12.356   7.581  -3.318  0.00  0.00    -0.305 OA
ATOM     21  C   UNL d   1      12.258  10.215  -5.880  0.00  0.00     0.103 A 
ATOM     22  N   UNL d   1      11.421   9.661  -6.763  0.00  0.00    -0.227 NA
ATOM     23  C   UNL d   1      11.653   6.439  -3.535  0.00  0.00     0.123 A 
ENDBRANCH  12  15
ENDBRANCH   8   9
ENDBRANCH   7   8
ENDBRANCH   4   7
BRANCH   1  24
ATOM     24  N   UNL d   1       8.801   1.479 -16.229  0.00  0.00    -0.240 NA
ATOM     25  C   UNL d   1       8.353   1.362 -17.487  0.00  0.00     0.251 C 
ATOM     26  O   UNL d   1       7.859   2.292 -18.124  0.00  0.00    -0.271 OA
BRANCH  25  27
ATOM     27  C   UNL d   1       8.481  -0.021 -18.128  0.00  0.00     0.090 C 
BRANCH  27  28
ATOM     28  C   UNL d   1       7.165  -0.539 -18.748  0.00  0.00     0.009 C 
ATOM     29  C   UNL d   1       7.417  -1.850 -19.517  0.00  0.00     0.003 C 
ATOM     30  C   UNL d   1       6.131  -2.381 -20.161  0.00  0.00     0.030 C 
ATOM     31  C   UNL d   1       5.033  -2.589 -19.106  0.00  0.00     0.116 C 
ATOM     32  C   UNL d   1       4.761  -1.284 -18.339  0.00  0.00     0.030 C 
ATOM     33  C   UNL d   1       6.046  -0.745 -17.699  0.00  0.00     0.003 C 
BRANCH  31  34
ATOM     34  O   UNL d   1       3.858  -3.034 -19.766  0.00  0.00    -0.354 OA
ATOM     35  C   UNL d   1       2.960  -3.751 -18.931  0.00  0.00     0.174 C 
ENDBRANCH  31  34
ENDBRANCH  27  28
ENDBRANCH  25  27
ENDBRANCH   1  24
TORSDOF 8
