REMARK  7 active torsions:
REMARK  status: ('A' for Active; 'I' for Inactive)
REMARK    1  A    between atoms: O_2  and  C_3 
REMARK    2  A    between atoms: C_6  and  N_7 
REMARK    3  A    between atoms: N_10  and  C_11 
REMARK    4  A    between atoms: C_11  and  C_12 
REMARK    5  A    between atoms: C_12  and  C_13 
REMARK    6  A    between atoms: C_13  and  N_14 
REMARK    7  A    between atoms: N_17  and  C_18 
ROOT
ATOM      1  C   UNL d   1       5.465   0.130 -15.266  0.00  0.00     0.150 A 
ATOM      2  N   UNL d   1       4.524  -0.727 -14.793  0.00  0.00    -0.227 NA
ATOM      3  C   UNL d   1       3.909  -1.576 -15.647  0.00  0.00     0.101 A 
ATOM      4  C   UNL d   1       4.164  -1.607 -17.027  0.00  0.00     0.021 A 
ATOM      5  C   UNL d   1       5.098  -0.701 -17.545  0.00  0.00     0.015 A 
ATOM      6  C   UNL d   1       5.755   0.189 -16.668  0.00  0.00     0.102 A 
ATOM      7  C   UNL d   1       6.665   1.147 -17.292  0.00  0.00     0.104 C 
ATOM      8  N   UNL d   1       7.367   1.906 -17.808  0.00  0.00    -0.191 NA
ENDROOT
BRANCH   1   9
ATOM      9  N   UNL d   1       6.088   0.917 -14.277  0.00  0.00    -0.329 N 
ATOM     10  C   UNL d   1       5.323   1.603 -13.222  0.00  0.00     0.138 C 
ATOM     11  C   UNL d   1       5.591   3.128 -13.279  0.00  0.00     0.274 C 
ATOM     12  N   UNL d   1       7.036   3.379 -13.201  0.00  0.00     0.141 N 
ATOM     13  C   UNL d   1       7.761   2.713 -14.295  0.00  0.00     0.274 C 
ATOM     14  C   UNL d   1       7.527   1.181 -14.247  0.00  0.00     0.138 C 
BRANCH  12  15
ATOM     15  C   UNL d   1       7.322   4.806 -13.110  0.00  0.00     0.253 C 
BRANCH  15  16
ATOM     16  C   UNL d   1       8.674   5.104 -12.429  0.00  0.00     0.071 C 
BRANCH  16  17
ATOM     17  C   UNL d   1       8.575   6.337 -11.515  0.00  0.00     0.253 C 
BRANCH  17  18
ATOM     18  N   UNL d   1       9.675   6.366 -10.549  0.00  0.00     0.141 N 
ATOM     19  C   UNL d   1       9.168   5.921  -9.242  0.00  0.00     0.274 C 
ATOM     20  C   UNL d   1      10.288   5.931  -8.194  0.00  0.00     0.137 C 
ATOM     21  N   UNL d   1      10.909   7.250  -8.133  0.00  0.00    -0.344 N 
ATOM     22  C   UNL d   1      11.342   7.792  -9.416  0.00  0.00     0.137 C 
ATOM     23  C   UNL d   1      10.165   7.741 -10.406  0.00  0.00     0.274 C 
BRANCH  21  24
ATOM     24  C   UNL d   1      11.095   7.912  -6.923  0.00  0.00     0.056 A 
ATOM     25  C   UNL d   1      11.309   7.155  -5.758  0.00  0.00     0.019 A 
ATOM     26  C   UNL d   1      11.515   7.770  -4.520  0.00  0.00     0.026 A 
ATOM     27  C   UNL d   1      11.483   9.188  -4.401  0.00  0.00     0.094 A 
ATOM     28  C   UNL d   1      11.253   9.950  -5.561  0.00  0.00     0.026 A 
ATOM     29  C   UNL d   1      11.074   9.325  -6.812  0.00  0.00     0.019 A 
BRANCH  27  30
ATOM     30  O   UNL d   1      11.650   9.867  -3.219  0.00  0.00    -0.328 OA
ATOM     31  C   UNL d   1      12.116   9.135  -2.096  0.00  0.00     0.181 C 
ENDBRANCH  27  30
ENDBRANCH  21  24
ENDBRANCH  17  18
ENDBRANCH  16  17
ENDBRANCH  15  16
ENDBRANCH  12  15
ENDBRANCH   1   9
TORSDOF 7
