REMARK  8 active torsions:
REMARK  status: ('A' for Active; 'I' for Inactive)
REMARK    1  A    between atoms: C_8  and  C_9 
REMARK    2  A    between atoms: C_12  and  O_13 
REMARK    3  A    between atoms: O_13  and  C_14 
REMARK    4  A    between atoms: C_14  and  C_15 
REMARK    5  A    between atoms: C_15  and  C_16 
REMARK    6  A    between atoms: C_16  and  C_17 
REMARK    7  A    between atoms: C_17  and  N_18 
REMARK    8  A    between atoms: N_21  and  C_22 
ROOT
ATOM      1  C   UNL d   1       9.133   4.965 -13.803  0.00  0.00     0.149 C 
ENDROOT
BRANCH   1   2
ATOM      2  O   UNL d   1       9.582   4.492 -15.055  0.00  0.00    -0.331 OA
BRANCH   2   3
ATOM      3  C   UNL d   1       9.002   3.380 -15.594  0.00  0.00     0.094 A 
ATOM      4  C   UNL d   1       9.326   3.135 -16.961  0.00  0.00     0.024 A 
ATOM      5  C   UNL d   1       8.753   2.029 -17.600  0.00  0.00     0.004 A 
ATOM      6  C   UNL d   1       7.923   1.118 -16.904  0.00  0.00     0.019 A 
ATOM      7  C   UNL d   1       7.647   1.381 -15.525  0.00  0.00     0.004 A 
ATOM      8  C   UNL d   1       8.112   2.514 -14.883  0.00  0.00     0.024 A 
BRANCH   6   9
ATOM      9  C   UNL d   1       7.307  -0.031 -17.531  0.00  0.00     0.101 A 
ATOM     10  C   UNL d   1       6.256  -0.799 -17.090  0.00  0.00     0.101 A 
ATOM     11  N   UNL d   1       6.069  -1.800 -18.029  0.00  0.00    -0.288 N 
ATOM     12  C   UNL d   1       5.175  -2.823 -18.078  0.00  0.00     0.082 A 
ATOM     13  C   UNL d   1       7.044  -1.588 -19.030  0.00  0.00     0.144 A 
ATOM     14  C   UNL d   1       5.210  -3.685 -19.147  0.00  0.00     0.019 A 
ATOM     15  C   UNL d   1       6.164  -3.515 -20.177  0.00  0.00     0.000 A 
ATOM     16  C   UNL d   1       7.072  -2.485 -20.124  0.00  0.00     0.013 A 
ATOM     17  C   UNL d   1       8.088  -2.293 -21.233  0.00  0.00     0.034 C 
ATOM     18  N   UNL d   1       7.793  -0.524 -18.738  0.00  0.00    -0.227 NA
ENDBRANCH   6   9
ENDBRANCH   2   3
ENDBRANCH   1   2
BRANCH   1  19
ATOM     19  C   UNL d   1       9.566   3.989 -12.654  0.00  0.00     0.035 C 
BRANCH  19  20
ATOM     20  C   UNL d   1       9.219   4.534 -11.271  0.00  0.00     0.038 C 
BRANCH  20  21
ATOM     21  C   UNL d   1       9.411   6.048 -11.119  0.00  0.00     0.251 C 
BRANCH  21  22
ATOM     22  N   UNL d   1       9.246   6.509  -9.763  0.00  0.00     0.141 N 
ATOM     23  C   UNL d   1      10.228   5.849  -8.909  0.00  0.00     0.274 C 
ATOM     24  C   UNL d   1      10.067   6.314  -7.481  0.00  0.00     0.137 C 
ATOM     25  N   UNL d   1      10.177   7.739  -7.419  0.00  0.00    -0.344 N 
ATOM     26  C   UNL d   1       9.335   8.493  -8.330  0.00  0.00     0.137 C 
ATOM     27  C   UNL d   1       9.531   7.959  -9.760  0.00  0.00     0.274 C 
BRANCH  25  28
ATOM     28  C   UNL d   1      11.049   8.354  -6.474  0.00  0.00     0.068 C 
ATOM     29  C   UNL d   1      11.359   7.812  -5.207  0.00  0.00     0.084 C 
ATOM     30  C   UNL d   1      12.262   8.483  -4.357  0.00  0.00     0.070 C 
ATOM     31 CL   UNL d   1      10.688   6.400  -4.573  0.00  0.00    -0.080 Cl
ATOM     32  C   UNL d   1      12.878   9.617  -4.813  0.00  0.00     0.012 C 
ATOM     33 CL   UNL d   1      12.625   7.918  -2.753  0.00  0.00    -0.081 Cl
ATOM     34  C   UNL d   1      12.495  10.203  -6.035  0.00  0.00     0.002 C 
ATOM     35  C   UNL d   1      11.601   9.568  -6.879  0.00  0.00     0.018 C 
ENDBRANCH  25  28
ENDBRANCH  21  22
ENDBRANCH  20  21
ENDBRANCH  19  20
ENDBRANCH   1  19
TORSDOF 8
