REMARK  7 active torsions:
REMARK  status: ('A' for Active; 'I' for Inactive)
REMARK    1  A    between atoms: S_2  and  C_5 
REMARK    2  A    between atoms: C_8  and  C_9 
REMARK       I    between atoms: C_9  and  N_11 
REMARK    3  A    between atoms: N_11  and  C_12 
REMARK    4  A    between atoms: C_15  and  C_16 
REMARK    5  A    between atoms: C_16  and  C_17 
REMARK    6  A    between atoms: C_17  and  N_18 
REMARK    7  A    between atoms: C_21  and  C_22 
ROOT
ATOM      1  C   UNL d   1       8.589   5.796 -11.667  0.00  0.00     0.107 C 
ATOM      2  C   UNL d   1       9.858   5.120 -12.220  0.00  0.00     0.024 C 
ATOM      3  C   UNL d   1       9.668   4.582 -13.631  0.00  0.00     0.002 C 
ATOM      4  C   UNL d   1       8.530   3.577 -13.617  0.00  0.00     0.002 C 
ATOM      5  C   UNL d   1       7.231   4.193 -13.046  0.00  0.00     0.002 C 
ATOM      6  C   UNL d   1       7.415   4.806 -11.656  0.00  0.00     0.024 C 
ENDROOT
BRANCH   4   7
ATOM      7  C   UNL d   1       8.287   3.036 -15.036  0.00  0.00     0.035 C 
BRANCH   7   8
ATOM      8  C   UNL d   1       8.831   1.625 -15.307  0.00  0.00     0.250 C 
BRANCH   8   9
ATOM      9  N   UNL d   1       8.354   1.098 -16.590  0.00  0.00     0.137 N 
ATOM     10  C   UNL d   1       8.380  -0.365 -16.537  0.00  0.00     0.251 C 
ATOM     11  C   UNL d   1       7.937  -0.979 -17.877  0.00  0.00     0.040 C 
ATOM     12  C   UNL d   1       6.542  -0.488 -18.276  0.00  0.00     0.028 C 
ATOM     13  C   UNL d   1       6.499   1.032 -18.225  0.00  0.00     0.040 C 
ATOM     14  C   UNL d   1       6.978   1.522 -16.872  0.00  0.00     0.251 C 
BRANCH  12  15
ATOM     15  C   UNL d   1       6.177  -0.967 -19.656  0.00  0.00     0.004 A 
ATOM     16  C   UNL d   1       5.366  -2.098 -20.007  0.00  0.00     0.021 A 
ATOM     17  C   UNL d   1       5.339  -2.133 -21.422  0.00  0.00     0.100 A 
ATOM     18  C   UNL d   1       4.650  -3.102 -19.313  0.00  0.00     0.002 A 
ATOM     19  O   UNL d   1       6.064  -1.079 -21.931  0.00  0.00    -0.305 OA
ATOM     20  C   UNL d   1       4.651  -3.113 -22.149  0.00  0.00     0.025 A 
ATOM     21  C   UNL d   1       6.554  -0.399 -20.858  0.00  0.00     0.118 A 
ATOM     22  C   UNL d   1       3.945  -4.098 -21.437  0.00  0.00     0.002 A 
ATOM     23  C   UNL d   1       3.945  -4.096 -20.026  0.00  0.00     0.000 A 
ENDBRANCH  12  15
ENDBRANCH   8   9
ENDBRANCH   7   8
ENDBRANCH   4   7
BRANCH   1  24
ATOM     24  N   UNL d   1       8.875   6.225 -10.312  0.00  0.00    -0.236 NA
ATOM     25  C   UNL d   1       9.700   7.226  -9.969  0.00  0.00     0.281 C 
ATOM     26  O   UNL d   1      10.259   7.955 -10.786  0.00  0.00    -0.265 OA
BRANCH  25  27
ATOM     27  C   UNL d   1       9.872   7.439  -8.527  0.00  0.00     0.087 A 
ATOM     28  C   UNL d   1       9.359   6.766  -7.449  0.00  0.00     0.013 A 
ATOM     29  C   UNL d   1       9.826   7.278  -6.210  0.00  0.00     0.018 A 
ATOM     30  C   UNL d   1      10.668   8.346  -6.355  0.00  0.00     0.113 A 
ATOM     31  S   UNL d   1      10.917   8.752  -8.029  0.00  0.00    -0.071 SA
BRANCH  30  32
ATOM     32  S   UNL d   1      11.460   9.268  -5.060  0.00  0.00     0.197 S 
ATOM     33  C   UNL d   1      11.973   7.975  -3.859  0.00  0.00     0.145 C 
ATOM     34  O   UNL d   1      10.469  10.153  -4.452  0.00  0.00    -0.221 OA
ATOM     35  O   UNL d   1      12.659   9.850  -5.659  0.00  0.00    -0.221 OA
ENDBRANCH  30  32
ENDBRANCH  25  27
ENDBRANCH   1  24
TORSDOF 7
