REMARK  11 active torsions:
REMARK  status: ('A' for Active; 'I' for Inactive)
REMARK    1  A    between atoms: O_2  and  C_3 
REMARK    2  A    between atoms: C_9  and  C_10 
REMARK    3  A    between atoms: C_12  and  C_13 
REMARK    4  A    between atoms: C_13  and  N_14 
REMARK    5  A    between atoms: N_14  and  C_15 
REMARK    6  A    between atoms: N_14  and  C_31 
REMARK    7  A    between atoms: C_15  and  C_16 
REMARK    8  A    between atoms: C_16  and  C_17 
REMARK    9  A    between atoms: C_17  and  S_18 
REMARK   10  A    between atoms: S_18  and  C_19 
REMARK   11  A    between atoms: C_22  and  C_23 
ROOT
ATOM      1  N   UNL d   1      11.672   4.728 -17.578  0.00  0.00     0.135 N 
ENDROOT
BRANCH   1   2
ATOM      2  C   UNL d   1      10.861   3.926 -16.640  0.00  0.00     0.251 C 
BRANCH   2   3
ATOM      3  C   UNL d   1      11.622   2.742 -16.029  0.00  0.00     0.038 A 
ATOM      4  C   UNL d   1      10.890   1.747 -15.162  0.00  0.00     0.026 A 
ATOM      5  C   UNL d   1      11.388   1.331 -16.529  0.00  0.00     0.007 A 
BRANCH   4   6
ATOM      6  C   UNL d   1       9.429   1.927 -14.907  0.00  0.00     0.002 A 
ATOM      7  C   UNL d   1       8.959   3.018 -14.132  0.00  0.00     0.090 A 
ATOM      8  C   UNL d   1       7.565   3.196 -13.974  0.00  0.00     0.026 A 
ATOM      9  C   UNL d   1       6.657   2.289 -14.548  0.00  0.00     0.032 A 
ATOM     10  C   UNL d   1       7.130   1.204 -15.305  0.00  0.00     0.140 A 
ATOM     11  F   UNL d   1       6.254   0.343 -15.874  0.00  0.00    -0.204 F 
ATOM     12  C   UNL d   1       8.507   1.026 -15.485  0.00  0.00     0.027 A 
BRANCH   7  13
ATOM     13  O   UNL d   1       9.903   3.871 -13.586  0.00  0.00    -0.328 OA
ATOM     14  C   UNL d   1       9.445   4.944 -12.776  0.00  0.00     0.181 C 
ENDBRANCH   7  13
ENDBRANCH   4   6
ENDBRANCH   2   3
ENDBRANCH   1   2
BRANCH   1  15
ATOM     15  C   UNL d   1      12.156   3.921 -18.712  0.00  0.00     0.251 C 
BRANCH  15  16
ATOM     16  C   UNL d   1      10.985   3.431 -19.569  0.00  0.00     0.047 C 
BRANCH  16  17
ATOM     17  C   UNL d   1      11.354   2.369 -20.612  0.00  0.00     0.067 C 
BRANCH  17  18
ATOM     18  S   UNL d   1       9.941   1.907 -21.681  0.00  0.00    -0.075 SA
BRANCH  18  19
ATOM     19  C   UNL d   1       8.703   1.470 -20.492  0.00  0.00     0.193 A 
ATOM     20  N   UNL d   1       8.100   0.253 -20.471  0.00  0.00    -0.289 N 
ATOM     21  C   UNL d   1       7.270   0.367 -19.408  0.00  0.00     0.167 A 
ATOM     22  C   UNL d   1       8.279  -0.867 -21.390  0.00  0.00     0.134 C 
ATOM     23  N   UNL d   1       7.323   1.576 -18.833  0.00  0.00    -0.128 NA
ATOM     24  N   UNL d   1       8.221   2.289 -19.567  0.00  0.00    -0.122 NA
BRANCH  21  25
ATOM     25  C   UNL d   1       6.359  -0.661 -18.932  0.00  0.00     0.036 A 
ATOM     26  C   UNL d   1       6.757  -2.011 -18.836  0.00  0.00     0.003 A 
ATOM     27  C   UNL d   1       5.846  -2.988 -18.392  0.00  0.00     0.000 A 
ATOM     28  C   UNL d   1       4.535  -2.612 -18.033  0.00  0.00     0.000 A 
ATOM     29  C   UNL d   1       4.133  -1.266 -18.117  0.00  0.00     0.000 A 
ATOM     30  C   UNL d   1       5.040  -0.295 -18.567  0.00  0.00     0.003 A 
ENDBRANCH  21  25
ENDBRANCH  18  19
ENDBRANCH  17  18
ENDBRANCH  16  17
ENDBRANCH  15  16
ENDBRANCH   1  15
BRANCH   1  31
ATOM     31  C   UNL d   1      12.772   5.452 -16.915  0.00  0.00     0.219 C 
ATOM     32  C   UNL d   1      12.322   6.214 -15.646  0.00  0.00     0.035 C 
ATOM     33  C   UNL d   1      13.420   6.473 -17.870  0.00  0.00     0.035 C 
ENDBRANCH   1  31
TORSDOF 11
