REMARK  7 active torsions:
REMARK  status: ('A' for Active; 'I' for Inactive)
REMARK    1  A    between atoms: C_6  and  N_7 
REMARK    2  A    between atoms: N_10  and  C_11 
REMARK    3  A    between atoms: C_11  and  C_12 
REMARK    4  A    between atoms: C_12  and  C_13 
REMARK    5  A    between atoms: C_13  and  C_14 
REMARK    6  A    between atoms: C_14  and  N_15 
REMARK       I    between atoms: N_15  and  C_16 
REMARK    7  A    between atoms: C_16  and  C_18 
ROOT
ATOM      1  C   UNL d   1       9.549   5.560 -11.605  0.00  0.00     0.037 C 
ENDROOT
BRANCH   1   2
ATOM      2  C   UNL d   1       8.107   5.065 -11.734  0.00  0.00     0.251 C 
BRANCH   2   3
ATOM      3  N   UNL d   1       7.530   5.336 -13.038  0.00  0.00     0.141 N 
ATOM      4  C   UNL d   1       6.177   4.764 -13.115  0.00  0.00     0.274 C 
ATOM      5  C   UNL d   1       6.210   3.234 -13.035  0.00  0.00     0.137 C 
ATOM      6  N   UNL d   1       7.143   2.712 -14.041  0.00  0.00    -0.344 N 
ATOM      7  C   UNL d   1       8.477   3.321 -14.115  0.00  0.00     0.137 C 
ATOM      8  C   UNL d   1       8.363   4.866 -14.148  0.00  0.00     0.274 C 
BRANCH   6   9
ATOM      9  C   UNL d   1       6.773   1.705 -14.946  0.00  0.00     0.056 A 
ATOM     10  C   UNL d   1       7.295   1.697 -16.259  0.00  0.00     0.017 A 
ATOM     11  C   UNL d   1       6.926   0.695 -17.176  0.00  0.00     0.001 A 
ATOM     12  C   UNL d   1       6.019  -0.304 -16.790  0.00  0.00    -0.004 A 
ATOM     13  C   UNL d   1       5.482  -0.307 -15.488  0.00  0.00    -0.020 A 
ATOM     14  C   UNL d   1       4.506  -1.383 -15.069  0.00  0.00     0.031 C 
ATOM     15  C   UNL d   1       5.862   0.695 -14.566  0.00  0.00     0.013 A 
ENDBRANCH   6   9
ENDBRANCH   2   3
ENDBRANCH   1   2
BRANCH   1  16
ATOM     16  C   UNL d   1       9.783   6.234 -10.268  0.00  0.00     0.029 C 
BRANCH  16  17
ATOM     17  C   UNL d   1       8.966   5.680  -9.086  0.00  0.00     0.129 C 
BRANCH  17  18
ATOM     18  N   UNL d   1       9.115   6.485  -7.889  0.00  0.00    -0.236 NA
ATOM     19  C   UNL d   1      10.212   7.149  -7.511  0.00  0.00     0.274 C 
ATOM     20  O   UNL d   1      11.262   7.168  -8.153  0.00  0.00    -0.268 OA
BRANCH  19  21
ATOM     21  C   UNL d   1      10.132   7.886  -6.185  0.00  0.00     0.184 C 
ATOM     22  N   UNL d   1      10.852   7.066  -5.236  0.00  0.00    -0.263 NA
ATOM     23  C   UNL d   1      11.468   7.642  -4.144  0.00  0.00     0.073 A 
ATOM     24  C   UNL d   1      11.497   9.047  -3.978  0.00  0.00    -0.005 A 
ATOM     25  C   UNL d   1      12.019   6.802  -3.175  0.00  0.00     0.018 A 
ATOM     26  C   UNL d   1      10.871   9.990  -4.992  0.00  0.00     0.030 C 
ATOM     27  C   UNL d   1      12.098   9.589  -2.823  0.00  0.00    -0.003 A 
ATOM     28  C   UNL d   1      10.747   9.293  -6.339  0.00  0.00     0.039 C 
ATOM     29  C   UNL d   1      12.661   8.740  -1.860  0.00  0.00    -0.000 A 
ATOM     30  C   UNL d   1      12.612   7.354  -2.029  0.00  0.00     0.002 A 
ENDBRANCH  19  21
ENDBRANCH  17  18
ENDBRANCH  16  17
ENDBRANCH   1  16
TORSDOF 7
