REMARK  8 active torsions:
REMARK  status: ('A' for Active; 'I' for Inactive)
REMARK    1  A    between atoms: C_8  and  C_9 
REMARK       I    between atoms: C_9  and  N_11 
REMARK    2  A    between atoms: N_11  and  C_12 
REMARK    3  A    between atoms: C_12  and  C_13 
REMARK    4  A    between atoms: C_13  and  C_14 
REMARK    5  A    between atoms: C_14  and  C_15 
REMARK    6  A    between atoms: C_15  and  N_16 
REMARK    7  A    between atoms: N_19  and  C_20 
REMARK    8  A    between atoms: C_25  and  O_26 
ROOT
ATOM      1  C   UNL d   1      12.276   6.438  -2.196  0.00  0.00    -0.009 C 
ATOM      2  C   UNL d   1      12.061   6.976  -3.269  0.00  0.00    -0.051 C 
ATOM      3  C   UNL d   1      11.801   7.580  -4.564  0.00  0.00     0.042 A 
ATOM      4  C   UNL d   1      12.176   8.912  -4.816  0.00  0.00     0.009 A 
ATOM      5  C   UNL d   1      11.953   9.467  -6.092  0.00  0.00     0.007 A 
ATOM      6  C   UNL d   1      11.367   8.683  -7.106  0.00  0.00     0.030 A 
ATOM      7  S   UNL d   1      11.050   9.141  -8.770  0.00  0.00    -0.082 SA
ATOM      8  C   UNL d   1      10.371   7.572  -9.123  0.00  0.00     0.087 A 
ATOM      9  C   UNL d   1      10.385   6.711  -8.050  0.00  0.00     0.012 A 
ATOM     10  C   UNL d   1      10.967   7.328  -6.878  0.00  0.00     0.007 A 
ATOM     11  C   UNL d   1      11.203   6.814  -5.583  0.00  0.00     0.009 A 
ENDROOT
BRANCH   8  12
ATOM     12  C   UNL d   1       9.850   7.395 -10.494  0.00  0.00     0.281 C 
ATOM     13  O   UNL d   1       9.826   8.333 -11.289  0.00  0.00    -0.265 OA
ATOM     14  N   UNL d   1       9.390   6.171 -10.796  0.00  0.00    -0.234 NA
BRANCH  14  15
ATOM     15  C   UNL d   1       8.702   5.806 -12.034  0.00  0.00     0.129 C 
BRANCH  15  16
ATOM     16  C   UNL d   1       9.159   4.426 -12.541  0.00  0.00     0.029 C 
BRANCH  16  17
ATOM     17  C   UNL d   1       8.585   4.081 -13.922  0.00  0.00     0.037 C 
BRANCH  17  18
ATOM     18  C   UNL d   1       8.884   2.628 -14.345  0.00  0.00     0.251 C 
BRANCH  18  19
ATOM     19  N   UNL d   1       8.390   2.336 -15.693  0.00  0.00     0.141 N 
ATOM     20  C   UNL d   1       8.295   0.879 -15.884  0.00  0.00     0.274 C 
ATOM     21  C   UNL d   1       7.740   0.537 -17.285  0.00  0.00     0.137 C 
ATOM     22  N   UNL d   1       8.547   1.177 -18.314  0.00  0.00    -0.343 N 
ATOM     23  C   UNL d   1       8.793   2.599 -18.121  0.00  0.00     0.137 C 
ATOM     24  C   UNL d   1       9.316   2.874 -16.700  0.00  0.00     0.274 C 
BRANCH  22  25
ATOM     25  C   UNL d   1       9.157   0.438 -19.341  0.00  0.00     0.079 A 
ATOM     26  C   UNL d   1      10.548   0.540 -19.611  0.00  0.00     0.110 A 
ATOM     27  C   UNL d   1      11.098  -0.212 -20.684  0.00  0.00     0.026 A 
ATOM     28  C   UNL d   1      10.284  -1.046 -21.471  0.00  0.00     0.002 A 
ATOM     29  C   UNL d   1       8.917  -1.159 -21.189  0.00  0.00     0.002 A 
ATOM     30  C   UNL d   1       8.355  -0.422 -20.128  0.00  0.00     0.019 A 
BRANCH  26  31
ATOM     31  O   UNL d   1      11.307   1.353 -18.792  0.00  0.00    -0.327 OA
ATOM     32  C   UNL d   1      12.699   1.465 -19.038  0.00  0.00     0.181 C 
ENDBRANCH  26  31
ENDBRANCH  22  25
ENDBRANCH  18  19
ENDBRANCH  17  18
ENDBRANCH  16  17
ENDBRANCH  15  16
ENDBRANCH  14  15
ENDBRANCH   8  12
TORSDOF 8
