REMARK  2 active torsions:
REMARK  status: ('A' for Active; 'I' for Inactive)
REMARK    1  A    between atoms: N_11  and  C_12 
REMARK    2  A    between atoms: C_12  and  C_13 
ROOT
ATOM      1  N   UNL d   1      11.862   1.456 -17.515  0.00  0.00    -0.191 NA
ATOM      2  C   UNL d   1      10.899   1.693 -16.918  0.00  0.00     0.101 C 
ATOM      3  C   UNL d   1       9.691   1.986 -16.167  0.00  0.00     0.068 A 
ATOM      4  C   UNL d   1       8.436   1.587 -16.665  0.00  0.00     0.012 A 
ATOM      5  C   UNL d   1       7.266   1.856 -15.928  0.00  0.00     0.025 A 
ATOM      6  C   UNL d   1       7.335   2.545 -14.700  0.00  0.00     0.090 A 
ATOM      7  C   UNL d   1       8.593   2.969 -14.211  0.00  0.00     0.003 A 
ATOM      8  C   UNL d   1       9.769   2.670 -14.933  0.00  0.00     0.008 A 
ATOM      9  C   UNL d   1       8.679   3.681 -12.871  0.00  0.00     0.062 C 
ATOM     10  C   UNL d   1       9.420   5.005 -12.898  0.00  0.00     0.255 C 
ATOM     11  N   UNL d   1       9.028   5.547 -11.612  0.00  0.00     0.142 N 
ATOM     12  C   UNL d   1       7.569   5.388 -11.574  0.00  0.00     0.254 C 
ATOM     13  C   UNL d   1       7.321   4.017 -12.226  0.00  0.00     0.070 C 
ATOM     14  C   UNL d   1       6.179   4.006 -13.250  0.00  0.00     0.151 C 
ATOM     15  O   UNL d   1       6.167   2.800 -14.019  0.00  0.00    -0.331 OA
ENDROOT
BRANCH  11  16
ATOM     16  C   UNL d   1       9.428   6.929 -11.393  0.00  0.00     0.277 C 
BRANCH  16  17
ATOM     17  C   UNL d   1       9.857   7.248  -9.971  0.00  0.00     0.011 A 
ATOM     18  C   UNL d   1       9.844   6.288  -8.932  0.00  0.00    -0.000 A 
ATOM     19  C   UNL d   1      10.283   6.653  -7.642  0.00  0.00     0.029 A 
ATOM     20  C   UNL d   1      10.743   7.958  -7.383  0.00  0.00     0.140 A 
ATOM     21  C   UNL d   1      10.765   8.906  -8.422  0.00  0.00     0.029 A 
ATOM     22  F   UNL d   1      11.164   8.308  -6.144  0.00  0.00    -0.204 F 
ATOM     23  C   UNL d   1      10.327   8.549  -9.708  0.00  0.00    -0.000 A 
ENDBRANCH  16  17
ENDBRANCH  11  16
TORSDOF 2
