REMARK  6 active torsions:
REMARK  status: ('A' for Active; 'I' for Inactive)
REMARK    1  A    between atoms: C_2  and  N_3 
REMARK    2  A    between atoms: N_3  and  C_4 
REMARK    3  A    between atoms: N_3  and  C_6 
REMARK    4  A    between atoms: C_6  and  C_7 
REMARK    5  A    between atoms: C_7  and  C_8 
REMARK    6  A    between atoms: C_11  and  C_12 
ROOT
ATOM      1  C   UNL d   1       9.330   1.368 -17.899  0.00  0.00     0.155 A 
ATOM      2  C   UNL d   1       8.638   1.056 -19.238  0.00  0.00     0.038 C 
ATOM      3  O   UNL d   1       8.377   1.935 -17.002  0.00  0.00    -0.328 OA
ATOM      4  C   UNL d   1       8.267   1.123 -15.898  0.00  0.00     0.097 A 
ATOM      5  C   UNL d   1       9.034   0.028 -15.956  0.00  0.00     0.064 A 
ATOM      6  C   UNL d   1       9.774   0.097 -17.186  0.00  0.00     0.200 A 
ATOM      7  O   UNL d   1      10.617  -0.688 -17.611  0.00  0.00    -0.289 OA
ENDROOT
BRANCH   1   8
ATOM      8  C   UNL d   1      10.476   2.370 -18.109  0.00  0.00     0.071 C 
BRANCH   8   9
ATOM      9  C   UNL d   1      11.306   2.736 -16.849  0.00  0.00     0.253 C 
BRANCH   9  10
ATOM     10  N   UNL d   1      12.369   3.712 -17.119  0.00  0.00     0.137 N 
BRANCH  10  11
ATOM     11  C   UNL d   1      11.865   5.016 -17.564  0.00  0.00     0.250 C 
ATOM     12  C   UNL d   1      11.041   5.725 -16.480  0.00  0.00     0.037 C 
ENDBRANCH  10  11
BRANCH  10  13
ATOM     13  C   UNL d   1      13.364   3.137 -18.035  0.00  0.00     0.250 C 
ATOM     14  C   UNL d   1      14.648   3.968 -18.186  0.00  0.00     0.037 C 
ENDBRANCH  10  13
ENDBRANCH   9  10
ENDBRANCH   8   9
ENDBRANCH   1   8
BRANCH   4  15
ATOM     15  C   UNL d   1       7.291   1.457 -14.858  0.00  0.00     0.022 A 
ATOM     16  C   UNL d   1       7.199   2.789 -14.418  0.00  0.00     0.002 A 
ATOM     17  C   UNL d   1       6.280   3.143 -13.412  0.00  0.00     0.000 A 
ATOM     18  C   UNL d   1       5.457   2.155 -12.839  0.00  0.00     0.000 A 
ATOM     19  C   UNL d   1       5.541   0.819 -13.286  0.00  0.00     0.000 A 
ATOM     20  C   UNL d   1       6.463   0.466 -14.294  0.00  0.00     0.002 A 
ENDBRANCH   4  15
TORSDOF 6
