REMARK  0 active torsions:
REMARK  status: ('A' for Active; 'I' for Inactive)
ROOT
ATOM      1  C   UNL d   1      12.615   7.354  -2.635  0.00  0.00    -0.000 A 
ATOM      2  C   UNL d   1      11.901   6.304  -3.261  0.00  0.00    -0.000 A 
ATOM      3  C   UNL d   1      11.093   6.543  -4.401  0.00  0.00    -0.002 A 
ATOM      4  C   UNL d   1      11.040   7.834  -4.857  0.00  0.00     0.012 A 
ATOM      5  C   UNL d   1      11.735   8.863  -4.248  0.00  0.00     0.009 A 
ATOM      6  C   UNL d   1      12.557   8.645  -3.121  0.00  0.00    -0.003 A 
ATOM      7  C   UNL d   1      11.312  10.092  -4.925  0.00  0.00     0.277 C 
ATOM      8  N   UNL d   1      10.765   9.684  -6.226  0.00  0.00     0.149 N 
ATOM      9  C   UNL d   1      11.906   9.461  -7.110  0.00  0.00     0.256 C 
ATOM     10  C   UNL d   1      11.414   9.020  -8.501  0.00  0.00     0.063 C 
ATOM     11  C   UNL d   1      10.516   7.848  -8.312  0.00  0.00    -0.003 A 
ATOM     12  C   UNL d   1       9.984   7.552  -7.112  0.00  0.00     0.090 A 
ATOM     13  N   UNL d   1       9.124   6.489  -7.181  0.00  0.00    -0.248 NA
ATOM     14  C   UNL d   1       9.153   5.996  -8.458  0.00  0.00     0.081 A 
ATOM     15  C   UNL d   1       8.519   4.918  -9.068  0.00  0.00     0.019 C 
ATOM     16  C   UNL d   1       8.646   4.796 -10.463  0.00  0.00     0.002 C 
ATOM     17  C   UNL d   1       9.559   5.579 -11.186  0.00  0.00     0.000 C 
ATOM     18  C   UNL d   1      10.204   6.637 -10.548  0.00  0.00     0.001 C 
ATOM     19  C   UNL d   1      10.005   6.875  -9.190  0.00  0.00     0.015 A 
ATOM     20  C   UNL d   1      10.132   8.402  -5.956  0.00  0.00     0.281 C 
ENDROOT
TORSDOF 0
