REMARK  8 active torsions:
REMARK  status: ('A' for Active; 'I' for Inactive)
REMARK    1  A    between atoms: C_1  and  C_9 
REMARK    2  A    between atoms: C_2  and  C_3 
REMARK    3  A    between atoms: C_9  and  O_10 
REMARK    4  A    between atoms: O_10  and  C_11 
REMARK    5  A    between atoms: C_11  and  C_12 
REMARK    6  A    between atoms: C_12  and  C_13 
REMARK    7  A    between atoms: N_16  and  C_17 
REMARK    8  A    between atoms: C_17  and  C_18 
ROOT
ATOM      1  C   UNL d   1       8.895   4.629 -11.068  0.00  0.00     0.144 C 
ENDROOT
BRANCH   1   2
ATOM      2  O   UNL d   1       9.211   5.584 -10.083  0.00  0.00    -0.341 OA
BRANCH   2   3
ATOM      3  C   UNL d   1       8.952   5.081  -8.786  0.00  0.00     0.218 C 
BRANCH   3   4
ATOM      4  C   UNL d   1       9.552   5.989  -7.810  0.00  0.00    -0.054 C 
ATOM      5  C   UNL d   1      10.094   6.739  -7.019  0.00  0.00    -0.062 C 
BRANCH   5   6
ATOM      6  C   UNL d   1      10.758   7.612  -6.078  0.00  0.00     0.042 A 
ATOM      7  C   UNL d   1      10.803   8.998  -6.334  0.00  0.00     0.008 A 
ATOM      8  C   UNL d   1      11.439   9.853  -5.420  0.00  0.00     0.001 A 
ATOM      9  C   UNL d   1      12.028   9.323  -4.252  0.00  0.00     0.000 A 
ATOM     10  C   UNL d   1      11.986   7.941  -4.001  0.00  0.00     0.001 A 
ATOM     11  C   UNL d   1      11.352   7.080  -4.918  0.00  0.00     0.008 A 
ENDBRANCH   5   6
ENDBRANCH   3   4
ENDBRANCH   2   3
ENDBRANCH   1   2
BRANCH   1  12
ATOM     12  C   UNL d   1       8.637   5.319 -12.413  0.00  0.00     0.032 C 
BRANCH  12  13
ATOM     13  C   UNL d   1       8.179   4.362 -13.536  0.00  0.00     0.006 C 
ATOM     14  C   UNL d   1       9.231   3.279 -13.859  0.00  0.00     0.035 C 
ATOM     15  C   UNL d   1       8.723   2.293 -14.920  0.00  0.00     0.250 C 
ATOM     16  N   UNL d   1       7.484   1.662 -14.465  0.00  0.00     0.137 N 
ATOM     17  C   UNL d   1       6.434   2.674 -14.307  0.00  0.00     0.250 C 
ATOM     18  C   UNL d   1       6.812   3.707 -13.237  0.00  0.00     0.035 C 
BRANCH  16  19
ATOM     19  C   UNL d   1       7.068   0.654 -15.438  0.00  0.00     0.250 C 
BRANCH  19  20
ATOM     20  C   UNL d   1       6.174  -0.395 -14.800  0.00  0.00     0.033 A 
ATOM     21  C   UNL d   1       4.679  -0.394 -15.002  0.00  0.00     0.002 A 
ATOM     22  C   UNL d   1       5.516  -1.436 -15.681  0.00  0.00     0.002 A 
ENDBRANCH  19  20
ENDBRANCH  16  19
ENDBRANCH  12  13
ENDBRANCH   1  12
TORSDOF 8
