REMARK  7 active torsions:
REMARK  status: ('A' for Active; 'I' for Inactive)
REMARK    1  A    between atoms: S_2  and  O_5 
REMARK    2  A    between atoms: O_5  and  C_6 
REMARK    3  A    between atoms: C_6  and  C_7 
REMARK    4  A    between atoms: C_7  and  C_8 
REMARK    5  A    between atoms: C_8  and  C_9 
REMARK    6  A    between atoms: C_9  and  O_10 
REMARK    7  A    between atoms: O_10  and  S_11 
ROOT
ATOM      1  C   UNL d   1       8.822   6.415  -7.489  0.00  0.00     0.036 C 
ENDROOT
BRANCH   1   2
ATOM      2  C   UNL d   1       9.774   6.863  -6.370  0.00  0.00     0.163 C 
BRANCH   2   3
ATOM      3  O   UNL d   1       9.708   8.272  -6.220  0.00  0.00    -0.256 OA
BRANCH   3   4
ATOM      4  S   UNL d   1      11.119   9.001  -5.660  0.00  0.00     0.281 S 
ATOM      5  C   UNL d   1      12.082   8.979  -7.222  0.00  0.00     0.171 C 
ATOM      6  O   UNL d   1      11.741   8.102  -4.673  0.00  0.00    -0.198 OA
ATOM      7  O   UNL d   1      10.789  10.388  -5.306  0.00  0.00    -0.198 OA
ENDBRANCH   3   4
ENDBRANCH   2   3
ENDBRANCH   1   2
BRANCH   1   8
ATOM      8  C   UNL d   1       9.558   5.718  -8.638  0.00  0.00     0.036 C 
BRANCH   8   9
ATOM      9  C   UNL d   1       8.618   5.419  -9.815  0.00  0.00     0.163 C 
BRANCH   9  10
ATOM     10  O   UNL d   1       9.418   4.930 -10.881  0.00  0.00    -0.256 OA
BRANCH  10  11
ATOM     11  S   UNL d   1       9.118   5.594 -12.407  0.00  0.00     0.281 S 
ATOM     12  C   UNL d   1       9.271   7.389 -12.028  0.00  0.00     0.171 C 
ATOM     13  O   UNL d   1      10.242   5.192 -13.271  0.00  0.00    -0.198 OA
ATOM     14  O   UNL d   1       7.737   5.272 -12.778  0.00  0.00    -0.198 OA
ENDBRANCH  10  11
ENDBRANCH   9  10
ENDBRANCH   8   9
ENDBRANCH   1   8
TORSDOF 7
