REMARK  6 active torsions:
REMARK  status: ('A' for Active; 'I' for Inactive)
REMARK    1  A    between atoms: N_12  and  C_13 
REMARK    2  A    between atoms: C_13  and  C_14 
REMARK    3  A    between atoms: C_14  and  C_15 
REMARK    4  A    between atoms: C_15  and  C_16 
REMARK    5  A    between atoms: C_16  and  N_17 
REMARK    6  A    between atoms: N_20  and  C_21 
ROOT
ATOM      1  C   UNL d   1       8.508   6.935 -12.009  0.00  0.00     0.028 C 
ENDROOT
BRANCH   1   2
ATOM      2  C   UNL d   1       7.260   6.044 -12.267  0.00  0.00     0.122 C 
BRANCH   2   3
ATOM      3  N   UNL d   1       7.553   4.750 -12.941  0.00  0.00    -0.221 N 
ATOM      4  C   UNL d   1       6.546   3.863 -13.366  0.00  0.00     0.271 A 
ATOM      5  O   UNL d   1       5.336   4.022 -13.211  0.00  0.00    -0.266 OA
ATOM      6  C   UNL d   1       7.194   2.714 -14.087  0.00  0.00     0.069 A 
ATOM      7  C   UNL d   1       8.584   2.794 -14.169  0.00  0.00     0.108 A 
ATOM      8  C   UNL d   1       6.550   1.585 -14.612  0.00  0.00     0.005 A 
ATOM      9  C   UNL d   1       9.401   1.796 -14.711  0.00  0.00     0.013 A 
ATOM     10  S   UNL d   1       9.150   4.192 -13.326  0.00  0.00     0.270 S 
ATOM     11  C   UNL d   1       8.755   0.668 -15.244  0.00  0.00     0.001 A 
ATOM     12  C   UNL d   1       7.342   0.575 -15.207  0.00  0.00     0.000 A 
ATOM     13  O   UNL d   1       9.834   3.690 -12.125  0.00  0.00    -0.200 OA
ATOM     14  O   UNL d   1       9.803   5.107 -14.278  0.00  0.00    -0.200 OA
ENDBRANCH   2   3
ENDBRANCH   1   2
BRANCH   1  15
ATOM     15  C   UNL d   1       9.461   6.339 -10.968  0.00  0.00     0.037 C 
BRANCH  15  16
ATOM     16  C   UNL d   1      10.492   7.301 -10.381  0.00  0.00     0.251 C 
BRANCH  16  17
ATOM     17  N   UNL d   1      10.080   7.784  -9.069  0.00  0.00     0.141 N 
ATOM     18  C   UNL d   1      11.021   8.822  -8.645  0.00  0.00     0.274 C 
ATOM     19  C   UNL d   1      10.560   9.385  -7.292  0.00  0.00     0.137 C 
ATOM     20  N   UNL d   1      10.420   8.312  -6.322  0.00  0.00    -0.344 N 
ATOM     21  C   UNL d   1       9.602   7.186  -6.744  0.00  0.00     0.137 C 
ATOM     22  C   UNL d   1      10.098   6.676  -8.097  0.00  0.00     0.274 C 
BRANCH  20  23
ATOM     23  C   UNL d   1      11.081   8.337  -5.082  0.00  0.00     0.056 A 
ATOM     24  C   UNL d   1      11.486   7.135  -4.468  0.00  0.00     0.017 A 
ATOM     25  C   UNL d   1      12.130   7.150  -3.217  0.00  0.00     0.002 A 
ATOM     26  C   UNL d   1      12.369   8.375  -2.569  0.00  0.00     0.000 A 
ATOM     27  C   UNL d   1      11.960   9.576  -3.175  0.00  0.00     0.002 A 
ATOM     28  C   UNL d   1      11.323   9.563  -4.429  0.00  0.00     0.017 A 
ENDBRANCH  20  23
ENDBRANCH  16  17
ENDBRANCH  15  16
ENDBRANCH   1  15
TORSDOF 6
