REMARK  7 active torsions:
REMARK  status: ('A' for Active; 'I' for Inactive)
REMARK    1  A    between atoms: N_9  and  C_10 
REMARK    2  A    between atoms: C_10  and  C_11 
REMARK    3  A    between atoms: C_11  and  C_12 
REMARK    4  A    between atoms: C_12  and  C_13 
REMARK    5  A    between atoms: C_13  and  C_14 
REMARK    6  A    between atoms: C_14  and  N_15 
REMARK    7  A    between atoms: N_18  and  C_19 
ROOT
ATOM      1  C   UNL d   1       6.966   4.748 -11.765  0.00  0.00     0.139 C 
ATOM      2  N   UNL d   1       7.666   4.205 -12.947  0.00  0.00    -0.246 N 
ATOM      3  C   UNL d   1       7.065   3.198 -13.653  0.00  0.00     0.284 A 
ATOM      4  O   UNL d   1       5.961   2.713 -13.389  0.00  0.00    -0.265 OA
ATOM      5  C   UNL d   1       7.861   2.708 -14.786  0.00  0.00     0.172 A 
ATOM      6  C   UNL d   1       9.069   3.231 -15.130  0.00  0.00     0.187 A 
ATOM      7  N   UNL d   1       9.600   2.615 -16.273  0.00  0.00    -0.043 NA
ATOM      8  C   UNL d   1       8.660   1.708 -16.566  0.00  0.00     0.720 A 
ATOM      9  N   UNL d   1       8.649   0.770 -17.651  0.00  0.00    -0.128 N 
ATOM     10  C   UNL d   1       7.613  -0.111 -17.815  0.00  0.00     0.276 A 
ATOM     11  O   UNL d   1       7.589  -0.935 -18.726  0.00  0.00    -0.266 OA
ATOM     12  C   UNL d   1       6.510  -0.004 -16.844  0.00  0.00     0.081 A 
ATOM     13  C   UNL d   1       6.507   0.879 -15.819  0.00  0.00     0.103 A 
ATOM     14  N   UNL d   1       7.621   1.717 -15.734  0.00  0.00    -0.133 N 
ATOM     15  N   UNL d   1       9.592   4.285 -14.334  0.00  0.00    -0.263 N 
ATOM     16  C   UNL d   1      10.901   4.855 -14.670  0.00  0.00     0.137 C 
ATOM     17  C   UNL d   1       8.901   4.752 -13.243  0.00  0.00     0.335 A 
ATOM     18  O   UNL d   1       9.387   5.650 -12.546  0.00  0.00    -0.246 OA
ENDROOT
BRANCH   9  19
ATOM     19  C   UNL d   1       9.782   0.770 -18.581  0.00  0.00     0.128 C 
BRANCH  19  20
ATOM     20  C   UNL d   1      10.966  -0.048 -18.022  0.00  0.00     0.025 C 
BRANCH  20  21
ATOM     21  C   UNL d   1      12.320   0.339 -18.625  0.00  0.00     0.004 C 
BRANCH  21  22
ATOM     22  C   UNL d   1      12.732   1.797 -18.350  0.00  0.00     0.035 C 
BRANCH  22  23
ATOM     23  C   UNL d   1      13.964   2.221 -19.169  0.00  0.00     0.250 C 
BRANCH  23  24
ATOM     24  N   UNL d   1      14.144   3.672 -19.124  0.00  0.00     0.141 N 
ATOM     25  C   UNL d   1      15.112   4.075 -20.151  0.00  0.00     0.274 C 
ATOM     26  C   UNL d   1      15.330   5.604 -20.135  0.00  0.00     0.137 C 
ATOM     27  N   UNL d   1      15.703   6.043 -18.789  0.00  0.00    -0.343 N 
ATOM     28  C   UNL d   1      14.769   5.627 -17.748  0.00  0.00     0.137 C 
ATOM     29  C   UNL d   1      14.609   4.096 -17.798  0.00  0.00     0.274 C 
BRANCH  27  30
ATOM     30  C   UNL d   1      16.852   6.811 -18.555  0.00  0.00     0.082 A 
ATOM     31  C   UNL d   1      17.709   6.576 -17.448  0.00  0.00     0.146 A 
ATOM     32  C   UNL d   1      18.854   7.362 -17.239  0.00  0.00     0.029 A 
ATOM     33  O   UNL d   1      17.464   5.582 -16.547  0.00  0.00    -0.189 OA
ATOM     34  C   UNL d   1      19.176   8.399 -18.121  0.00  0.00     0.002 A 
ATOM     35  C   UNL d   1      18.347   8.649 -19.227  0.00  0.00     0.002 A 
ATOM     36  C   UNL d   1      17.197   7.858 -19.442  0.00  0.00     0.019 A 
ENDBRANCH  27  30
ENDBRANCH  23  24
ENDBRANCH  22  23
ENDBRANCH  21  22
ENDBRANCH  20  21
ENDBRANCH  19  20
ENDBRANCH   9  19
TORSDOF 7
