REMARK  8 active torsions:
REMARK  status: ('A' for Active; 'I' for Inactive)
REMARK    1  A    between atoms: S_2  and  N_4 
REMARK    2  A    between atoms: S_2  and  C_24 
REMARK    3  A    between atoms: N_4  and  C_5 
REMARK    4  A    between atoms: C_5  and  C_6 
REMARK    5  A    between atoms: C_6  and  C_7 
REMARK    6  A    between atoms: C_7  and  C_8 
REMARK    7  A    between atoms: C_8  and  N_9 
REMARK    8  A    between atoms: N_12  and  C_13 
ROOT
ATOM      1  C   UNL d   1       8.902   6.652 -11.497  0.00  0.00     0.037 C 
ENDROOT
BRANCH   1   2
ATOM      2  C   UNL d   1       9.400   8.119 -11.394  0.00  0.00     0.029 C 
BRANCH   2   3
ATOM      3  C   UNL d   1       9.775   8.627  -9.983  0.00  0.00     0.139 C 
BRANCH   3   4
ATOM      4  N   UNL d   1      10.647   7.666  -9.322  0.00  0.00    -0.185 NA
BRANCH   4   5
ATOM      5  S   UNL d   1      10.026   6.699  -8.030  0.00  0.00     0.281 S 
ATOM      6  O   UNL d   1       8.578   6.771  -8.017  0.00  0.00    -0.199 OA
ATOM      7  O   UNL d   1      10.657   5.393  -8.095  0.00  0.00    -0.199 OA
BRANCH   5   8
ATOM      8  C   UNL d   1      10.587   7.559  -6.595  0.00  0.00     0.105 A 
ATOM      9  C   UNL d   1      11.066   6.820  -5.505  0.00  0.00     0.013 A 
ATOM     10  C   UNL d   1      11.502   7.503  -4.359  0.00  0.00     0.001 A 
ATOM     11  C   UNL d   1      11.463   8.919  -4.331  0.00  0.00     0.000 A 
ATOM     12  C   UNL d   1      11.967   6.781  -3.245  0.00  0.00     0.000 A 
ATOM     13  C   UNL d   1      10.985   9.651  -5.436  0.00  0.00     0.001 A 
ATOM     14  C   UNL d   1      11.873   9.591  -3.171  0.00  0.00     0.000 A 
ATOM     15  C   UNL d   1      10.531   8.962  -6.573  0.00  0.00     0.013 A 
ATOM     16  C   UNL d   1      12.343   8.866  -2.067  0.00  0.00     0.000 A 
ATOM     17  C   UNL d   1      12.382   7.465  -2.095  0.00  0.00     0.000 A 
ENDBRANCH   5   8
ENDBRANCH   4   5
ENDBRANCH   3   4
ENDBRANCH   2   3
ENDBRANCH   1   2
BRANCH   1  18
ATOM     18  C   UNL d   1       9.063   6.084 -12.907  0.00  0.00     0.251 C 
BRANCH  18  19
ATOM     19  N   UNL d   1       8.639   4.688 -12.940  0.00  0.00     0.141 N 
ATOM     20  C   UNL d   1       9.468   3.954 -13.905  0.00  0.00     0.274 C 
ATOM     21  C   UNL d   1       9.018   2.493 -13.988  0.00  0.00     0.138 C 
ATOM     22  N   UNL d   1       7.607   2.399 -14.325  0.00  0.00    -0.329 N 
ATOM     23  C   UNL d   1       6.716   3.195 -13.489  0.00  0.00     0.138 C 
ATOM     24  C   UNL d   1       7.249   4.634 -13.401  0.00  0.00     0.274 C 
BRANCH  22  25
ATOM     25  C   UNL d   1       7.161   1.586 -15.388  0.00  0.00     0.148 A 
ATOM     26  C   UNL d   1       6.041   0.672 -15.261  0.00  0.00     0.042 A 
ATOM     27  C   UNL d   1       5.831   0.020 -16.514  0.00  0.00     0.050 A 
ATOM     28  C   UNL d   1       5.158   0.324 -14.207  0.00  0.00     0.004 A 
ATOM     29  S   UNL d   1       7.038   0.607 -17.635  0.00  0.00     0.015 SA
ATOM     30  C   UNL d   1       4.796  -0.907 -16.716  0.00  0.00     0.008 A 
ATOM     31  N   UNL d   1       7.785   1.633 -16.548  0.00  0.00    -0.192 NA
ATOM     32  C   UNL d   1       3.931  -1.215 -15.653  0.00  0.00     0.001 A 
ATOM     33  C   UNL d   1       4.107  -0.596 -14.405  0.00  0.00     0.000 A 
ENDBRANCH  22  25
ENDBRANCH  18  19
ENDBRANCH   1  18
TORSDOF 8
