REMARK  8 active torsions:
REMARK  status: ('A' for Active; 'I' for Inactive)
REMARK    1  A    between atoms: O_2  and  C_3 
REMARK    2  A    between atoms: C_8  and  N_9 
REMARK    3  A    between atoms: N_12  and  C_13 
REMARK    4  A    between atoms: C_13  and  C_14 
REMARK    5  A    between atoms: C_14  and  C_15 
REMARK    6  A    between atoms: C_15  and  C_17 
REMARK    7  A    between atoms: C_17  and  N_18 
REMARK       I    between atoms: N_18  and  C_19 
REMARK    8  A    between atoms: C_19  and  C_21 
ROOT
ATOM      1  C   UNL d   1       5.010  -0.980 -15.894  0.00  0.00     0.178 C 
ATOM      2  O   UNL d   1       3.853  -1.681 -16.250  0.00  0.00    -0.221 OA
ENDROOT
BRANCH   1   3
ATOM      3  C   UNL d   1       4.658  -0.117 -14.675  0.00  0.00     0.070 C 
BRANCH   3   4
ATOM      4  C   UNL d   1       5.889   0.344 -13.871  0.00  0.00     0.253 C 
BRANCH   4   5
ATOM      5  N   UNL d   1       5.938   1.795 -13.726  0.00  0.00     0.141 N 
ATOM      6  C   UNL d   1       5.598   2.170 -12.344  0.00  0.00     0.274 C 
ATOM      7  C   UNL d   1       5.601   3.679 -12.086  0.00  0.00     0.137 C 
ATOM      8  N   UNL d   1       6.899   4.188 -12.444  0.00  0.00    -0.343 N 
ATOM      9  C   UNL d   1       7.343   3.845 -13.779  0.00  0.00     0.137 C 
ATOM     10  C   UNL d   1       7.274   2.318 -14.060  0.00  0.00     0.274 C 
BRANCH   8  11
ATOM     11  C   UNL d   1       7.685   5.015 -11.609  0.00  0.00     0.079 A 
ATOM     12  C   UNL d   1       8.181   6.260 -12.053  0.00  0.00     0.110 A 
ATOM     13  C   UNL d   1       9.048   7.037 -11.254  0.00  0.00     0.026 A 
ATOM     14  C   UNL d   1       9.400   6.593  -9.958  0.00  0.00     0.002 A 
ATOM     15  C   UNL d   1       8.885   5.365  -9.494  0.00  0.00     0.002 A 
ATOM     16  C   UNL d   1       7.998   4.622 -10.301  0.00  0.00     0.019 A 
BRANCH  12  17
ATOM     17  O   UNL d   1       7.761   6.753 -13.230  0.00  0.00    -0.327 OA
ATOM     18  C   UNL d   1       6.833   7.837 -13.179  0.00  0.00     0.181 C 
ENDBRANCH  12  17
ENDBRANCH   8  11
ENDBRANCH   4   5
ENDBRANCH   3   4
ENDBRANCH   1   3
BRANCH   1  19
ATOM     19  C   UNL d   1       5.393  -0.129 -17.124  0.00  0.00     0.162 C 
BRANCH  19  20
ATOM     20  N   UNL d   1       6.680  -0.533 -17.664  0.00  0.00    -0.232 NA
ATOM     21  C   UNL d   1       6.982  -0.653 -18.968  0.00  0.00     0.275 C 
ATOM     22  O   UNL d   1       6.137  -0.688 -19.859  0.00  0.00    -0.266 OA
BRANCH  21  23
ATOM     23  C   UNL d   1       8.454  -0.608 -19.290  0.00  0.00     0.057 A 
ATOM     24  C   UNL d   1       8.867  -0.312 -20.616  0.00  0.00     0.001 A 
ATOM     25  C   UNL d   1      10.244  -0.253 -20.899  0.00  0.00    -0.018 A 
ATOM     26  C   UNL d   1      11.198  -0.473 -19.903  0.00  0.00    -0.004 A 
ATOM     27  C   UNL d   1      10.898   0.017 -22.246  0.00  0.00     0.053 A 
ATOM     28  C   UNL d   1      10.812  -0.768 -18.585  0.00  0.00    -0.000 A 
ATOM     29  C   UNL d   1      12.520  -0.395 -20.506  0.00  0.00    -0.004 A 
ATOM     30  C   UNL d   1       9.437  -0.836 -18.287  0.00  0.00     0.005 A 
ATOM     31  C   UNL d   1      12.364  -0.108 -21.867  0.00  0.00    -0.018 A 
ATOM     32  C   UNL d   1      13.795  -0.568 -19.944  0.00  0.00    -0.000 A 
ATOM     33  C   UNL d   1      13.479   0.034 -22.712  0.00  0.00    -0.004 A 
ATOM     34  C   UNL d   1      14.768  -0.126 -22.154  0.00  0.00    -0.000 A 
ATOM     35  C   UNL d   1      14.925  -0.427 -20.779  0.00  0.00    -0.000 A 
ENDBRANCH  21  23
ENDBRANCH  19  20
ENDBRANCH   1  19
TORSDOF 8
