REMARK  9 active torsions:
REMARK  status: ('A' for Active; 'I' for Inactive)
REMARK    1  A    between atoms: C_6  and  C_7 
REMARK    2  A    between atoms: C_10  and  S_11 
REMARK    3  A    between atoms: S_11  and  C_12 
REMARK    4  A    between atoms: C_12  and  C_13 
REMARK    5  A    between atoms: C_13  and  C_14 
REMARK    6  A    between atoms: C_14  and  N_15 
REMARK    7  A    between atoms: N_15  and  C_16 
REMARK    8  A    between atoms: C_19  and  C_20 
REMARK    9  A    between atoms: C_23  and  C_24 
ROOT
ATOM      1  N   UNL d   1       8.587   5.568 -11.107  0.00  0.00     0.337 N 
ENDROOT
BRANCH   1   2
ATOM      2  C   UNL d   1       9.846   6.291 -11.055  0.00  0.00     0.291 C 
BRANCH   2   3
ATOM      3  C   UNL d   1       9.791   7.421 -10.077  0.00  0.00     0.050 C 
BRANCH   3   4
ATOM      4  C   UNL d   1      11.172   8.051  -9.994  0.00  0.00     0.067 C 
BRANCH   4   5
ATOM      5  S   UNL d   1      11.104   9.422  -8.872  0.00  0.00    -0.075 SA
BRANCH   5   6
ATOM      6  C   UNL d   1      11.171   8.630  -7.327  0.00  0.00     0.193 A 
ATOM      7  N   UNL d   1      11.088   7.315  -7.143  0.00  0.00    -0.122 NA
ATOM      8  N   UNL d   1      11.267   7.124  -5.793  0.00  0.00    -0.126 NA
ATOM      9  C   UNL d   1      11.476   8.332  -5.272  0.00  0.00     0.191 A 
ATOM     10  N   UNL d   1      11.394   9.321  -6.187  0.00  0.00    -0.287 N 
ATOM     11  C   UNL d   1      11.659  10.738  -5.995  0.00  0.00     0.134 C 
BRANCH   9  12
ATOM     12  C   UNL d   1      11.862   8.465  -3.878  0.00  0.00     0.151 A 
ATOM     13  C   UNL d   1      12.082   7.506  -2.925  0.00  0.00     0.087 A 
ATOM     14  C   UNL d   1      11.950   6.064  -2.980  0.00  0.00     0.054 C 
ATOM     15  N   UNL d   1      12.287   8.100  -1.704  0.00  0.00    -0.221 NA
ATOM     16  C   UNL d   1      12.183   9.373  -1.981  0.00  0.00     0.225 A 
ATOM     17  O   UNL d   1      11.930   9.689  -3.285  0.00  0.00    -0.282 OA
ENDBRANCH   9  12
ENDBRANCH   5   6
ENDBRANCH   4   5
ENDBRANCH   3   4
ENDBRANCH   2   3
ENDBRANCH   1   2
BRANCH   1  18
ATOM     18  C   UNL d   1       8.641   4.416 -11.989  0.00  0.00     0.257 C 
ATOM     19  C   UNL d   1       7.209   3.941 -12.220  0.00  0.00     0.038 A 
ATOM     20  C   UNL d   1       7.123   3.541 -13.687  0.00  0.00     0.021 A 
ATOM     21  C   UNL d   1       6.253   4.664 -13.122  0.00  0.00     0.006 A 
ATOM     22  C   UNL d   1       8.479   3.839 -14.324  0.00  0.00     0.006 C 
ATOM     23  C   UNL d   1       9.234   4.713 -13.369  0.00  0.00     0.036 C 
BRANCH  20  24
ATOM     24  C   UNL d   1       6.503   2.225 -14.130  0.00  0.00    -0.023 A 
ATOM     25  C   UNL d   1       5.512   1.604 -13.332  0.00  0.00    -0.004 A 
ATOM     26  C   UNL d   1       4.884   0.407 -13.754  0.00  0.00     0.004 A 
ATOM     27  C   UNL d   1       5.212  -0.151 -15.003  0.00  0.00     0.071 A 
ATOM     28  C   UNL d   1       6.187   0.437 -15.802  0.00  0.00     0.004 A 
ATOM     29  C   UNL d   1       6.826   1.622 -15.384  0.00  0.00    -0.004 A 
BRANCH  27  30
ATOM     30  C   UNL d   1       4.494  -1.402 -15.482  0.00  0.00     0.419 C 
ATOM     31  F   UNL d   1       5.325  -2.419 -15.292  0.00  0.00    -0.166 F 
ATOM     32  F   UNL d   1       3.387  -1.588 -14.780  0.00  0.00    -0.166 F 
ATOM     33  F   UNL d   1       4.176  -1.304 -16.772  0.00  0.00    -0.166 F 
ENDBRANCH  27  30
ENDBRANCH  20  24
ENDBRANCH   1  18
TORSDOF 9
