REMARK  4 active torsions:
REMARK  status: ('A' for Active; 'I' for Inactive)
REMARK    1  A    between atoms: O_2  and  C_3 
REMARK    2  A    between atoms: C_9  and  C_10 
REMARK    3  A    between atoms: N_17  and  S_18 
REMARK    4  A    between atoms: S_18  and  C_21 
ROOT
ATOM      1  C   UNL d   1       6.408   0.083 -16.151  0.00  0.00     0.094 A 
ATOM      2  C   UNL d   1       6.957  -0.076 -17.444  0.00  0.00     0.026 A 
ATOM      3  C   UNL d   1       7.913   0.851 -17.925  0.00  0.00     0.020 A 
ATOM      4  C   UNL d   1       8.383   1.842 -17.075  0.00  0.00     0.075 A 
ATOM      5  C   UNL d   1       7.892   2.023 -15.742  0.00  0.00     0.020 A 
ATOM      6  C   UNL d   1       6.875   1.117 -15.319  0.00  0.00     0.026 A 
ATOM      7  C   UNL d   1       8.631   3.129 -15.191  0.00  0.00     0.016 A 
ATOM      8  C   UNL d   1       9.501   3.595 -16.140  0.00  0.00     0.091 A 
ATOM      9  N   UNL d   1       9.379   2.806 -17.270  0.00  0.00    -0.231 N 
ENDROOT
BRANCH   9  10
ATOM     10  S   UNL d   1      10.329   3.045 -18.682  0.00  0.00     0.271 S 
ATOM     11  O   UNL d   1       9.361   3.102 -19.789  0.00  0.00    -0.200 OA
ATOM     12  O   UNL d   1      11.176   4.201 -18.358  0.00  0.00    -0.200 OA
BRANCH  10  13
ATOM     13  C   UNL d   1      11.372   1.561 -18.865  0.00  0.00     0.105 A 
ATOM     14  C   UNL d   1      12.553   1.586 -19.675  0.00  0.00     0.030 A 
ATOM     15  C   UNL d   1      13.342   0.397 -19.835  0.00  0.00     0.082 A 
ATOM     16  C   UNL d   1      12.999   2.765 -20.323  0.00  0.00     0.004 A 
ATOM     17  C   UNL d   1      12.907  -0.797 -19.229  0.00  0.00     0.019 A 
ATOM     18  N   UNL d   1      14.493   0.380 -20.541  0.00  0.00    -0.244 NA
ATOM     19  C   UNL d   1      11.739  -0.809 -18.443  0.00  0.00     0.002 A 
ATOM     20  C   UNL d   1      11.008   0.363 -18.219  0.00  0.00     0.013 A 
ATOM     21  C   UNL d   1      14.913   1.515 -21.128  0.00  0.00     0.099 A 
ATOM     22  C   UNL d   1      14.204   2.729 -21.048  0.00  0.00     0.021 A 
ENDBRANCH  10  13
ENDBRANCH   9  10
BRANCH   7  23
ATOM     23  C   UNL d   1       8.456   3.788 -13.891  0.00  0.00    -0.021 C 
ATOM     24  C   UNL d   1       9.645   4.485 -13.256  0.00  0.00     0.064 C 
ATOM     25  C   UNL d   1       9.460   4.675 -11.743  0.00  0.00     0.295 C 
ATOM     26  N   UNL d   1       8.163   5.276 -11.470  0.00  0.00     0.344 N 
ATOM     27  C   UNL d   1       7.069   4.400 -11.872  0.00  0.00     0.316 C 
ATOM     28  C   UNL d   1       7.279   3.768 -13.238  0.00  0.00     0.007 C 
ENDBRANCH   7  23
BRANCH   1  29
ATOM     29  O   UNL d   1       5.456  -0.792 -15.648  0.00  0.00    -0.328 OA
ATOM     30  C   UNL d   1       4.996  -1.813 -16.532  0.00  0.00     0.181 C 
ENDBRANCH   1  29
TORSDOF 4
