REMARK  11 active torsions:
REMARK  status: ('A' for Active; 'I' for Inactive)
REMARK    1  A    between atoms: C_2  and  N_3 
REMARK    2  A    between atoms: N_3  and  C_4 
REMARK    3  A    between atoms: N_3  and  C_20 
REMARK    4  A    between atoms: C_4  and  C_5 
REMARK    5  A    between atoms: C_5  and  C_6 
REMARK    6  A    between atoms: C_6  and  C_7 
REMARK    7  A    between atoms: C_7  and  N_8 
REMARK       I    between atoms: N_8  and  C_9 
REMARK    8  A    between atoms: C_9  and  C_11 
REMARK    9  A    between atoms: C_20  and  C_21 
REMARK   10  A    between atoms: C_23  and  C_24 
REMARK   11  A    between atoms: C_30  and  O_31 
ROOT
ATOM      1  N   UNL d   1       7.064   4.043 -12.530  0.00  0.00     0.137 N 
ENDROOT
BRANCH   1   2
ATOM      2  C   UNL d   1       5.705   4.571 -12.375  0.00  0.00     0.250 C 
ATOM      3  C   UNL d   1       4.682   3.872 -13.272  0.00  0.00     0.037 C 
ENDBRANCH   1   2
BRANCH   1   4
ATOM      4  C   UNL d   1       7.965   4.636 -11.530  0.00  0.00     0.250 C 
BRANCH   4   5
ATOM      5  C   UNL d   1       8.245   6.159 -11.751  0.00  0.00     0.037 C 
BRANCH   5   6
ATOM      6  C   UNL d   1       9.201   6.779 -10.758  0.00  0.00     0.029 C 
BRANCH   6   7
ATOM      7  C   UNL d   1       9.422   8.261 -11.153  0.00  0.00     0.129 C 
BRANCH   7   8
ATOM      8  N   UNL d   1       9.900   8.977  -9.998  0.00  0.00    -0.233 NA
ATOM      9  C   UNL d   1      11.176   8.925  -9.607  0.00  0.00     0.293 C 
ATOM     10  O   UNL d   1      12.111   8.670 -10.353  0.00  0.00    -0.264 OA
BRANCH   9  11
ATOM     11  C   UNL d   1      11.419   9.093  -8.184  0.00  0.00     0.139 A 
ATOM     12  N   UNL d   1      10.444   9.527  -7.309  0.00  0.00    -0.241 NA
ATOM     13  C   UNL d   1      10.945   9.624  -6.031  0.00  0.00     0.082 A 
ATOM     14  C   UNL d   1      12.282   9.216  -6.098  0.00  0.00     0.019 A 
ATOM     15  C   UNL d   1      10.421  10.070  -4.851  0.00  0.00     0.019 A 
ATOM     16  C   UNL d   1      12.553   8.855  -7.460  0.00  0.00     0.025 A 
ATOM     17  C   UNL d   1      13.008   9.206  -4.868  0.00  0.00     0.002 A 
ATOM     18  C   UNL d   1      12.451   9.523  -3.640  0.00  0.00     0.000 A 
ATOM     19  C   UNL d   1      11.143   9.985  -3.659  0.00  0.00     0.002 A 
ENDBRANCH   9  11
ENDBRANCH   7   8
ENDBRANCH   6   7
ENDBRANCH   5   6
ENDBRANCH   4   5
ENDBRANCH   1   4
BRANCH   1  20
ATOM     20  C   UNL d   1       7.580   4.137 -13.907  0.00  0.00     0.251 C 
BRANCH  20  21
ATOM     21  C   UNL d   1       8.900   3.440 -14.063  0.00  0.00     0.038 A 
ATOM     22  C   UNL d   1       9.716   3.762 -15.296  0.00  0.00     0.026 A 
ATOM     23  C   UNL d   1      10.263   4.093 -13.928  0.00  0.00     0.007 A 
BRANCH  22  24
ATOM     24  C   UNL d   1      10.367   2.733 -16.131  0.00  0.00     0.002 A 
ATOM     25  C   UNL d   1      11.611   3.014 -16.750  0.00  0.00     0.090 A 
ATOM     26  C   UNL d   1      12.247   1.988 -17.493  0.00  0.00     0.026 A 
ATOM     27  C   UNL d   1      11.651   0.716 -17.607  0.00  0.00     0.032 A 
ATOM     28  C   UNL d   1      10.416   0.451 -16.995  0.00  0.00     0.140 A 
ATOM     29  C   UNL d   1       9.767   1.466 -16.280  0.00  0.00     0.027 A 
ATOM     30  F   UNL d   1       9.870  -0.783 -17.062  0.00  0.00    -0.204 F 
BRANCH  25  31
ATOM     31  O   UNL d   1      12.154   4.271 -16.570  0.00  0.00    -0.328 OA
ATOM     32  C   UNL d   1      13.395   4.563 -17.199  0.00  0.00     0.181 C 
ENDBRANCH  25  31
ENDBRANCH  22  24
ENDBRANCH  20  21
ENDBRANCH   1  20
TORSDOF 11
