REMARK  6 active torsions:
REMARK  status: ('A' for Active; 'I' for Inactive)
REMARK    1  A    between atoms: S_2  and  C_4 
REMARK    2  A    between atoms: S_2  and  N_14 
REMARK    3  A    between atoms: C_17  and  C_18 
REMARK    4  A    between atoms: C_18  and  C_19 
REMARK    5  A    between atoms: C_19  and  N_20 
REMARK    6  A    between atoms: N_23  and  C_24 
ROOT
ATOM      1  N   UNL d   1       9.913   2.445 -15.748  0.00  0.00    -0.275 N 
ATOM      2  C   UNL d   1      10.325   2.013 -14.406  0.00  0.00     0.113 C 
ATOM      3  C   UNL d   1      10.366   3.201 -13.431  0.00  0.00     0.025 C 
ATOM      4  C   UNL d   1       9.084   4.040 -13.418  0.00  0.00     0.006 C 
ATOM      5  C   UNL d   1       8.855   4.510 -14.846  0.00  0.00     0.025 C 
ATOM      6  C   UNL d   1       8.734   3.326 -15.819  0.00  0.00     0.113 C 
ENDROOT
BRANCH   4   7
ATOM      7  C   UNL d   1       9.155   5.223 -12.432  0.00  0.00     0.035 C 
BRANCH   7   8
ATOM      8  C   UNL d   1       9.271   4.788 -10.955  0.00  0.00     0.250 C 
BRANCH   8   9
ATOM      9  N   UNL d   1       9.101   5.907 -10.032  0.00  0.00     0.141 N 
ATOM     10  C   UNL d   1      10.196   6.873 -10.169  0.00  0.00     0.274 C 
ATOM     11  C   UNL d   1       9.985   8.057  -9.220  0.00  0.00     0.137 C 
ATOM     12  N   UNL d   1       9.871   7.578  -7.847  0.00  0.00    -0.344 N 
ATOM     13  C   UNL d   1       8.861   6.547  -7.653  0.00  0.00     0.137 C 
ATOM     14  C   UNL d   1       9.076   5.395  -8.656  0.00  0.00     0.274 C 
BRANCH  12  15
ATOM     15  C   UNL d   1      10.655   8.106  -6.794  0.00  0.00     0.058 A 
ATOM     16  C   UNL d   1      10.896   7.370  -5.617  0.00  0.00     0.046 A 
ATOM     17  C   UNL d   1      11.694   7.907  -4.583  0.00  0.00     0.142 A 
ATOM     18  C   UNL d   1      12.264   9.186  -4.718  0.00  0.00     0.030 A 
ATOM     19  F   UNL d   1      11.935   7.174  -3.469  0.00  0.00    -0.204 F 
ATOM     20  C   UNL d   1      12.030   9.924  -5.891  0.00  0.00     0.004 A 
ATOM     21  C   UNL d   1      11.224   9.385  -6.913  0.00  0.00     0.017 A 
ENDBRANCH  12  15
ENDBRANCH   8   9
ENDBRANCH   7   8
ENDBRANCH   4   7
BRANCH   1  22
ATOM     22  S   UNL d   1      10.949   2.216 -17.145  0.00  0.00     0.264 S 
ATOM     23  O   UNL d   1      10.077   1.879 -18.279  0.00  0.00    -0.200 OA
ATOM     24  O   UNL d   1      12.002   1.264 -16.764  0.00  0.00    -0.200 OA
BRANCH  22  25
ATOM     25  C   UNL d   1      11.707   3.838 -17.412  0.00  0.00     0.105 A 
ATOM     26  C   UNL d   1      11.058   4.903 -18.104  0.00  0.00     0.030 A 
ATOM     27  C   UNL d   1      11.730   6.158 -18.258  0.00  0.00     0.082 A 
ATOM     28  C   UNL d   1       9.754   4.800 -18.653  0.00  0.00     0.004 A 
ATOM     29  C   UNL d   1      13.040   6.304 -17.753  0.00  0.00     0.019 A 
ATOM     30  N   UNL d   1      11.153   7.215 -18.876  0.00  0.00    -0.244 NA
ATOM     31  C   UNL d   1      13.692   5.239 -17.104  0.00  0.00     0.002 A 
ATOM     32  C   UNL d   1      13.020   4.014 -16.930  0.00  0.00     0.013 A 
ATOM     33  C   UNL d   1       9.889   7.111 -19.329  0.00  0.00     0.099 A 
ATOM     34  C   UNL d   1       9.146   5.923 -19.230  0.00  0.00     0.021 A 
ENDBRANCH  22  25
ENDBRANCH   1  22
TORSDOF 6
