REMARK  1 active torsions:
REMARK  status: ('A' for Active; 'I' for Inactive)
REMARK    1  A    between atoms: O_2  and  C_3 
ROOT
ATOM      1  C   UNL d   1       9.654   7.279 -10.417  0.00  0.00     0.117 A 
ATOM      2  C   UNL d   1       9.412   7.100  -9.027  0.00  0.00     0.153 A 
ATOM      3  O   UNL d   1       9.602   8.130  -8.162  0.00  0.00    -0.188 OA
ATOM      4  C   UNL d   1       8.810   5.928  -8.526  0.00  0.00     0.029 A 
ATOM      5  C   UNL d   1       8.407   4.931  -9.428  0.00  0.00    -0.002 A 
ATOM      6  C   UNL d   1       8.575   5.120 -10.804  0.00  0.00    -0.020 A 
ATOM      7  C   UNL d   1       9.210   6.286 -11.318  0.00  0.00     0.031 A 
ATOM      8  C   UNL d   1       9.271   6.380 -12.840  0.00  0.00     0.279 C 
ATOM      9  N   UNL d   1       9.269   5.068 -13.516  0.00  0.00     0.144 N 
ATOM     10  C   UNL d   1       9.431   5.186 -14.958  0.00  0.00     0.256 C 
ATOM     11  C   UNL d   1       9.631   3.831 -15.661  0.00  0.00     0.061 C 
ATOM     12  C   UNL d   1       8.533   2.888 -15.280  0.00  0.00    -0.020 A 
ATOM     13  C   UNL d   1       8.235   1.841 -16.165  0.00  0.00     0.022 A 
ATOM     14  C   UNL d   1       7.168   0.998 -15.835  0.00  0.00     0.119 A 
ATOM     15  C   UNL d   1       6.417   1.212 -14.696  0.00  0.00     0.119 A 
ATOM     16  C   UNL d   1       6.645   2.301 -13.845  0.00  0.00     0.024 A 
ATOM     17  C   UNL d   1       7.737   3.163 -14.124  0.00  0.00     0.007 A 
ATOM     18  C   UNL d   1       7.993   4.413 -13.255  0.00  0.00     0.246 C 
ATOM     19  C   UNL d   1       8.119   4.066 -11.785  0.00  0.00     0.064 C 
ATOM     20  O   UNL d   1       5.455   0.254 -14.609  0.00  0.00    -0.300 OA
ATOM     21  C   UNL d   1       5.642  -0.577 -15.726  0.00  0.00     0.304 A 
ATOM     22  O   UNL d   1       6.685  -0.067 -16.515  0.00  0.00    -0.300 OA
ENDROOT
BRANCH   1  23
ATOM     23  O   UNL d   1      10.213   8.480 -10.854  0.00  0.00    -0.326 OA
ATOM     24  C   UNL d   1      11.506   8.822 -10.389  0.00  0.00     0.181 C 
ENDBRANCH   1  23
TORSDOF 1
