REMARK  1 active torsions:
REMARK  status: ('A' for Active; 'I' for Inactive)
REMARK    1  A    between atoms: C_8  and  N_9 
ROOT
ATOM      1  C   UNL d   1       4.755   2.679 -12.844  0.00  0.00     0.031 C 
ATOM      2  C   UNL d   1       6.123   2.627 -13.492  0.00  0.00    -0.022 A 
ATOM      3  C   UNL d   1       6.624   1.437 -14.062  0.00  0.00    -0.003 A 
ATOM      4  C   UNL d   1       7.960   1.363 -14.462  0.00  0.00     0.019 A 
ATOM      5  C   UNL d   1       8.822   2.477 -14.292  0.00  0.00     0.086 A 
ATOM      6  C   UNL d   1       8.323   3.685 -13.714  0.00  0.00     0.051 A 
ATOM      7  C   UNL d   1       6.952   3.763 -13.392  0.00  0.00     0.000 A 
ATOM      8  C   UNL d   1       9.247   4.825 -13.282  0.00  0.00     0.142 C 
ATOM      9  N   UNL d   1      10.283   5.200 -14.010  0.00  0.00    -0.226 NA
ATOM     10  C   UNL d   1      10.651   4.673 -15.238  0.00  0.00     0.119 A 
ATOM     11  C   UNL d   1      11.145   5.564 -16.222  0.00  0.00     0.024 A 
ATOM     12  C   UNL d   1      11.678   5.054 -17.414  0.00  0.00     0.022 A 
ATOM     13  C   UNL d   1      11.710   3.660 -17.587  0.00  0.00     0.101 A 
ATOM     14  N   UNL d   1      11.224   2.793 -16.675  0.00  0.00    -0.224 NA
ATOM     15  C   UNL d   1      10.704   3.294 -15.549  0.00  0.00     0.180 A 
ATOM     16  N   UNL d   1      10.145   2.349 -14.696  0.00  0.00    -0.225 NA
ENDROOT
BRANCH   8  17
ATOM     17  N   UNL d   1       8.992   5.452 -12.061  0.00  0.00    -0.330 N 
ATOM     18  C   UNL d   1       8.393   4.789 -10.908  0.00  0.00     0.138 C 
ATOM     19  C   UNL d   1       9.265   4.872  -9.641  0.00  0.00     0.274 C 
ATOM     20  N   UNL d   1       9.461   6.280  -9.317  0.00  0.00     0.143 N 
ATOM     21  C   UNL d   1      10.158   6.930 -10.430  0.00  0.00     0.274 C 
ATOM     22  C   UNL d   1      10.223   6.396  -8.082  0.00  0.00     0.286 C 
ATOM     23  C   UNL d   1       9.311   6.845 -11.722  0.00  0.00     0.138 C 
ENDBRANCH   8  17
TORSDOF 1
