REMARK  6 active torsions:
REMARK  status: ('A' for Active; 'I' for Inactive)
REMARK    1  A    between atoms: N_10  and  C_11 
REMARK    2  A    between atoms: C_11  and  C_12 
REMARK    3  A    between atoms: C_14  and  C_15 
REMARK    4  A    between atoms: C_15  and  C_16 
REMARK    5  A    between atoms: C_16  and  N_17 
REMARK       I    between atoms: N_17  and  C_18 
REMARK    6  A    between atoms: C_18  and  C_20 
ROOT
ATOM      1  N   UNL d   1       4.640  -1.229 -16.183  0.00  0.00    -0.191 NA
ATOM      2  C   UNL d   1       5.537  -0.501 -16.266  0.00  0.00     0.101 C 
ATOM      3  C   UNL d   1       6.664   0.418 -16.372  0.00  0.00     0.068 A 
ATOM      4  C   UNL d   1       6.866   1.168 -17.549  0.00  0.00     0.010 A 
ATOM      5  C   UNL d   1       7.961   2.046 -17.654  0.00  0.00    -0.004 A 
ATOM      6  C   UNL d   1       8.854   2.198 -16.584  0.00  0.00    -0.022 A 
ATOM      7  C   UNL d   1       8.648   1.467 -15.393  0.00  0.00     0.008 A 
ATOM      8  C   UNL d   1       7.562   0.569 -15.293  0.00  0.00     0.008 A 
ATOM      9  C   UNL d   1       9.608   1.637 -14.223  0.00  0.00     0.276 C 
ATOM     10  N   UNL d   1      10.351   2.894 -14.238  0.00  0.00     0.142 N 
ATOM     11  C   UNL d   1      11.027   3.014 -15.533  0.00  0.00     0.255 C 
ATOM     12  C   UNL d   1      10.000   3.193 -16.681  0.00  0.00     0.061 C 
ENDROOT
BRANCH  10  13
ATOM     13  C   UNL d   1       9.501   4.056 -13.972  0.00  0.00     0.251 C 
BRANCH  13  14
ATOM     14  C   UNL d   1       9.003   4.109 -12.547  0.00  0.00     0.034 A 
ATOM     15  C   UNL d   1       8.367   5.395 -12.071  0.00  0.00     0.004 A 
ATOM     16  C   UNL d   1       7.503   4.179 -12.298  0.00  0.00     0.002 A 
BRANCH  15  17
ATOM     17  C   UNL d   1       8.640   5.880 -10.669  0.00  0.00     0.026 C 
BRANCH  17  18
ATOM     18  C   UNL d   1       9.809   6.866 -10.620  0.00  0.00     0.129 C 
BRANCH  18  19
ATOM     19  N   UNL d   1      10.115   7.199  -9.235  0.00  0.00    -0.233 NA
ATOM     20  C   UNL d   1      10.555   8.390  -8.800  0.00  0.00     0.293 C 
ATOM     21  O   UNL d   1      10.689   9.368  -9.529  0.00  0.00    -0.264 OA
BRANCH  20  22
ATOM     22  C   UNL d   1      10.852   8.479  -7.356  0.00  0.00     0.139 A 
ATOM     23  N   UNL d   1      11.111   7.322  -6.637  0.00  0.00    -0.241 NA
ATOM     24  C   UNL d   1      11.396   7.612  -5.322  0.00  0.00     0.082 A 
ATOM     25  C   UNL d   1      11.298   9.029  -5.210  0.00  0.00     0.019 A 
ATOM     26  C   UNL d   1      11.739   6.792  -4.237  0.00  0.00     0.019 A 
ATOM     27  C   UNL d   1      10.965   9.553  -6.504  0.00  0.00     0.025 A 
ATOM     28  C   UNL d   1      11.540   9.583  -3.934  0.00  0.00     0.002 A 
ATOM     29  C   UNL d   1      11.876   8.774  -2.836  0.00  0.00     0.000 A 
ATOM     30  C   UNL d   1      11.977   7.376  -2.980  0.00  0.00     0.002 A 
ENDBRANCH  20  22
ENDBRANCH  18  19
ENDBRANCH  17  18
ENDBRANCH  15  17
ENDBRANCH  13  14
ENDBRANCH  10  13
TORSDOF 6
