REMARK  6 active torsions:
REMARK  status: ('A' for Active; 'I' for Inactive)
REMARK    1  A    between atoms: O_2  and  C_3 
REMARK    2  A    between atoms: C_8  and  O_9 
REMARK    3  A    between atoms: C_14  and  C_15 
REMARK    4  A    between atoms: C_15  and  N_16 
REMARK    5  A    between atoms: N_19  and  C_20 
REMARK    6  A    between atoms: C_25  and  O_26 
ROOT
ATOM      1  C   UNL d   1      15.984   2.668 -21.170  0.00  0.00     0.116 A 
ATOM      2  C   UNL d   1      14.950   2.783 -20.225  0.00  0.00     0.022 A 
ATOM      3  C   UNL d   1      14.189   1.667 -19.840  0.00  0.00    -0.017 A 
ATOM      4  C   UNL d   1      14.478   0.395 -20.382  0.00  0.00     0.033 A 
ATOM      5  C   UNL d   1      15.541   0.268 -21.298  0.00  0.00     0.029 A 
ATOM      6  C   UNL d   1      16.330   1.374 -21.666  0.00  0.00     0.116 A 
ATOM      7  C   UNL d   1      13.686  -0.808 -20.019  0.00  0.00     0.173 C 
ATOM      8  O   UNL d   1      13.851  -1.916 -20.521  0.00  0.00    -0.291 OA
ATOM      9  C   UNL d   1      12.617  -0.625 -18.948  0.00  0.00     0.071 C 
ATOM     10  C   UNL d   1      11.988   0.776 -18.967  0.00  0.00     0.045 C 
ATOM     11  C   UNL d   1      13.052   1.874 -18.865  0.00  0.00     0.029 C 
ENDROOT
BRANCH  10  12
ATOM     12  C   UNL d   1      11.021   0.864 -17.802  0.00  0.00     0.251 C 
BRANCH  12  13
ATOM     13  N   UNL d   1      10.262   2.114 -17.825  0.00  0.00     0.141 N 
ATOM     14  C   UNL d   1       8.829   1.889 -18.047  0.00  0.00     0.274 C 
ATOM     15  C   UNL d   1       8.198   1.115 -16.873  0.00  0.00     0.137 C 
ATOM     16  N   UNL d   1       8.491   1.800 -15.622  0.00  0.00    -0.343 N 
ATOM     17  C   UNL d   1       9.880   2.168 -15.361  0.00  0.00     0.137 C 
ATOM     18  C   UNL d   1      10.450   2.908 -16.601  0.00  0.00     0.274 C 
BRANCH  16  19
ATOM     19  C   UNL d   1       7.491   2.031 -14.677  0.00  0.00     0.079 A 
ATOM     20  C   UNL d   1       6.511   1.041 -14.382  0.00  0.00     0.110 A 
ATOM     21  C   UNL d   1       5.489   1.346 -13.453  0.00  0.00     0.026 A 
ATOM     22  C   UNL d   1       5.444   2.607 -12.829  0.00  0.00     0.002 A 
ATOM     23  C   UNL d   1       6.419   3.584 -13.114  0.00  0.00     0.002 A 
ATOM     24  C   UNL d   1       7.439   3.288 -14.031  0.00  0.00     0.019 A 
BRANCH  20  25
ATOM     25  O   UNL d   1       6.627  -0.188 -14.994  0.00  0.00    -0.327 OA
ATOM     26  C   UNL d   1       5.601  -1.147 -14.832  0.00  0.00     0.181 C 
ENDBRANCH  20  25
ENDBRANCH  16  19
ENDBRANCH  12  13
ENDBRANCH  10  12
BRANCH   1  27
ATOM     27  O   UNL d   1      16.646   3.829 -21.481  0.00  0.00    -0.326 OA
ATOM     28  C   UNL d   1      16.701   4.160 -22.865  0.00  0.00     0.181 C 
ENDBRANCH   1  27
BRANCH   6  29
ATOM     29  O   UNL d   1      17.364   1.130 -22.534  0.00  0.00    -0.326 OA
ATOM     30  C   UNL d   1      18.661   1.543 -22.103  0.00  0.00     0.181 C 
ENDBRANCH   6  29
TORSDOF 6
