REMARK  8 active torsions:
REMARK  status: ('A' for Active; 'I' for Inactive)
REMARK    1  A    between atoms: C_2  and  C_3 
REMARK    2  A    between atoms: N_14  and  C_15 
REMARK    3  A    between atoms: C_15  and  C_16 
REMARK    4  A    between atoms: C_16  and  C_17 
REMARK    5  A    between atoms: C_17  and  S_18 
REMARK    6  A    between atoms: S_18  and  C_19 
REMARK    7  A    between atoms: C_22  and  C_23 
REMARK    8  A    between atoms: C_26  and  C_27 
ROOT
ATOM      1  C   UNL d   1       9.311   3.391 -13.316  0.00  0.00     0.047 C 
ENDROOT
BRANCH   1   2
ATOM      2  C   UNL d   1       9.753   2.443 -14.450  0.00  0.00     0.251 C 
BRANCH   2   3
ATOM      3  N   UNL d   1       8.911   1.243 -14.511  0.00  0.00     0.138 N 
ATOM      4  C   UNL d   1       9.571   0.081 -15.108  0.00  0.00     0.255 C 
ATOM      5  C   UNL d   1       9.887   0.198 -16.614  0.00  0.00     0.061 C 
ATOM      6  C   UNL d   1       8.686  -0.054 -17.516  0.00  0.00    -0.022 A 
ATOM      7  C   UNL d   1       7.523   0.757 -17.433  0.00  0.00    -0.022 A 
ATOM      8  C   UNL d   1       8.721  -1.125 -18.439  0.00  0.00     0.022 A 
ATOM      9  C   UNL d   1       6.407   0.504 -18.266  0.00  0.00     0.017 A 
ATOM     10  C   UNL d   1       7.439   1.903 -16.452  0.00  0.00     0.061 C 
ATOM     11  C   UNL d   1       6.431  -0.559 -19.190  0.00  0.00     0.106 A 
ATOM     12  N   UNL d   1       5.511  -1.013 -20.114  0.00  0.00    -0.224 NA
ATOM     13  C   UNL d   1       7.596  -1.355 -19.249  0.00  0.00     0.119 A 
ATOM     14  C   UNL d   1       6.146  -2.046 -20.687  0.00  0.00     0.159 A 
ATOM     15  O   UNL d   1       7.401  -2.327 -20.212  0.00  0.00    -0.292 OA
ATOM     16  C   UNL d   1       7.542   1.460 -14.982  0.00  0.00     0.255 C 
BRANCH  14  17
ATOM     17  C   UNL d   1       5.601  -2.906 -21.777  0.00  0.00     0.072 C 
ATOM     18  C   UNL d   1       4.745  -4.062 -21.254  0.00  0.00     0.009 C 
ENDBRANCH  14  17
ENDBRANCH   2   3
ENDBRANCH   1   2
BRANCH   1  19
ATOM     19  C   UNL d   1       9.794   4.833 -13.518  0.00  0.00     0.067 C 
BRANCH  19  20
ATOM     20  S   UNL d   1       8.621   6.032 -12.820  0.00  0.00    -0.075 SA
BRANCH  20  21
ATOM     21  C   UNL d   1       9.051   5.907 -11.121  0.00  0.00     0.193 A 
ATOM     22  N   UNL d   1       9.566   6.946 -10.434  0.00  0.00    -0.289 N 
ATOM     23  C   UNL d   1       9.693   6.430  -9.189  0.00  0.00     0.167 A 
ATOM     24  C   UNL d   1       9.869   8.278 -10.940  0.00  0.00     0.134 C 
ATOM     25  N   UNL d   1       9.342   5.134  -9.133  0.00  0.00    -0.128 NA
ATOM     26  N   UNL d   1       8.920   4.795 -10.395  0.00  0.00    -0.122 NA
BRANCH  23  27
ATOM     27  C   UNL d   1      10.194   7.137  -8.010  0.00  0.00     0.036 A 
ATOM     28  C   UNL d   1      10.975   6.444  -7.060  0.00  0.00     0.003 A 
ATOM     29  C   UNL d   1      11.451   7.090  -5.900  0.00  0.00     0.004 A 
ATOM     30  C   UNL d   1      11.215   8.468  -5.716  0.00  0.00     0.071 A 
ATOM     31  C   UNL d   1      10.476   9.178  -6.687  0.00  0.00     0.004 A 
ATOM     32  C   UNL d   1       9.926   8.510  -7.796  0.00  0.00     0.003 A 
BRANCH  30  33
ATOM     33  C   UNL d   1      11.766   9.194  -4.501  0.00  0.00     0.419 C 
ATOM     34  F   UNL d   1      13.011   9.590  -4.757  0.00  0.00    -0.166 F 
ATOM     35  F   UNL d   1      11.022  10.265  -4.220  0.00  0.00    -0.166 F 
ATOM     36  F   UNL d   1      11.775   8.397  -3.430  0.00  0.00    -0.166 F 
ENDBRANCH  30  33
ENDBRANCH  23  27
ENDBRANCH  20  21
ENDBRANCH  19  20
ENDBRANCH   1  19
TORSDOF 8
