REMARK  9 active torsions:
REMARK  status: ('A' for Active; 'I' for Inactive)
REMARK    1  A    between atoms: C_7  and  C_8 
REMARK    2  A    between atoms: C_8  and  C_9 
REMARK    3  A    between atoms: C_9  and  C_10 
REMARK    4  A    between atoms: C_10  and  N_11 
REMARK       I    between atoms: N_11  and  C_12 
REMARK       I    between atoms: C_12  and  N_14 
REMARK       I    between atoms: N_14  and  C_15 
REMARK       I    between atoms: C_15  and  N_17 
REMARK    5  A    between atoms: N_17  and  C_18 
REMARK    6  A    between atoms: C_18  and  C_19 
REMARK    7  A    between atoms: C_19  and  C_21 
REMARK    8  A    between atoms: C_21  and  C_22 
REMARK    9  A    between atoms: C_22  and  C_23 
ROOT
ATOM      1  N   UNL d   1       8.075   2.038 -14.642  0.00  0.00    -0.241 NA
ATOM      2  C   UNL d   1       8.965   2.929 -14.125  0.00  0.00     0.237 C 
ATOM      3  N   UNL d   1      10.283   2.617 -14.485  0.00  0.00    -0.060 NA
ATOM      4  N   UNL d   1       8.570   3.908 -13.396  0.00  0.00    -0.159 NA
ATOM      5  C   UNL d   1       9.444   4.831 -12.862  0.00  0.00     0.367 C 
ATOM      6  O   UNL d   1      10.583   5.123 -13.256  0.00  0.00    -0.243 OA
ATOM      7  N   UNL d   1       8.895   5.391 -11.785  0.00  0.00    -0.217 NA
ENDROOT
BRANCH   1   8
ATOM      8  C   UNL d   1       6.617   2.181 -14.605  0.00  0.00     0.129 C 
BRANCH   8   9
ATOM      9  C   UNL d   1       5.946   1.035 -13.825  0.00  0.00     0.032 C 
BRANCH   9  10
ATOM     10  C   UNL d   1       6.291  -0.357 -14.377  0.00  0.00     0.036 C 
BRANCH  10  11
ATOM     11  C   UNL d   1       5.745  -0.637 -15.752  0.00  0.00     0.024 A 
ATOM     12  C   UNL d   1       6.242  -0.274 -16.991  0.00  0.00     0.064 A 
ATOM     13  C   UNL d   1       7.474   0.527 -17.319  0.00  0.00     0.052 C 
ATOM     14  N   UNL d   1       5.431  -0.725 -18.043  0.00  0.00    -0.224 NA
ATOM     15  C   UNL d   1       4.378  -1.432 -17.627  0.00  0.00     0.214 A 
ATOM     16  N   UNL d   1       3.462  -2.009 -18.478  0.00  0.00    -0.120 N 
ATOM     17  S   UNL d   1       4.271  -1.568 -15.888  0.00  0.00    -0.050 SA
ENDBRANCH  10  11
ENDBRANCH   9  10
ENDBRANCH   8   9
ENDBRANCH   1   8
BRANCH   7  18
ATOM     18  C   UNL d   1       9.487   6.455 -10.990  0.00  0.00     0.131 C 
BRANCH  18  19
ATOM     19  C   UNL d   1       9.037   6.393  -9.521  0.00  0.00     0.025 C 
ATOM     20  C   UNL d   1       9.538   5.131  -8.796  0.00  0.00     0.002 C 
BRANCH  19  21
ATOM     21  C   UNL d   1       9.407   7.691  -8.768  0.00  0.00     0.007 C 
BRANCH  21  22
ATOM     22  C   UNL d   1      10.906   7.883  -8.475  0.00  0.00     0.026 C 
BRANCH  22  23
ATOM     23  C   UNL d   1      11.175   8.020  -6.989  0.00  0.00    -0.022 A 
ATOM     24  C   UNL d   1      11.196   6.879  -6.154  0.00  0.00    -0.004 A 
ATOM     25  C   UNL d   1      11.463   7.004  -4.778  0.00  0.00    -0.000 A 
ATOM     26  C   UNL d   1      11.710   8.275  -4.225  0.00  0.00    -0.000 A 
ATOM     27  C   UNL d   1      11.676   9.413  -5.055  0.00  0.00    -0.000 A 
ATOM     28  C   UNL d   1      11.409   9.288  -6.433  0.00  0.00    -0.004 A 
ENDBRANCH  22  23
ENDBRANCH  21  22
ENDBRANCH  19  21
ENDBRANCH  18  19
ENDBRANCH   7  18
TORSDOF 9
