REMARK  2 active torsions:
REMARK  status: ('A' for Active; 'I' for Inactive)
REMARK    1  A    between atoms: N_5  and  C_6 
REMARK    2  A    between atoms: C_18  and  C_19 
ROOT
ATOM      1  C   UNL d   1      12.964   2.774 -18.194  0.00  0.00     0.246 C 
ATOM      2  C   UNL d   1      11.546   2.190 -17.943  0.00  0.00     0.065 C 
ATOM      3  C   UNL d   1      10.799   2.757 -16.760  0.00  0.00    -0.014 A 
ATOM      4  C   UNL d   1      10.616   1.989 -15.591  0.00  0.00    -0.004 A 
ATOM      5  C   UNL d   1       9.895   2.527 -14.508  0.00  0.00    -0.000 A 
ATOM      6  C   UNL d   1       9.364   3.829 -14.584  0.00  0.00     0.001 A 
ATOM      7  C   UNL d   1       9.540   4.593 -15.752  0.00  0.00     0.006 A 
ATOM      8  C   UNL d   1      10.245   4.049 -16.839  0.00  0.00     0.025 A 
ATOM      9  S   UNL d   1      10.504   4.994 -18.294  0.00  0.00    -0.087 SA
ATOM     10  C   UNL d   1      12.225   5.324 -18.041  0.00  0.00     0.027 A 
ATOM     11  C   UNL d   1      12.596   6.679 -17.923  0.00  0.00     0.006 A 
ATOM     12  C   UNL d   1      13.945   7.038 -17.731  0.00  0.00     0.004 A 
ATOM     13  C   UNL d   1      14.917   6.012 -17.600  0.00  0.00     0.039 A 
ATOM     14  C   UNL d   1      14.537   4.679 -17.657  0.00  0.00     0.001 A 
ATOM     15  C   UNL d   1      13.191   4.287 -17.948  0.00  0.00     0.015 A 
ENDROOT
BRANCH   1  16
ATOM     16  N   UNL d   1      13.465   2.338 -19.526  0.00  0.00     0.144 N 
ATOM     17  C   UNL d   1      14.739   2.967 -19.917  0.00  0.00     0.286 C 
ATOM     18  C   UNL d   1      15.215   2.546 -21.299  0.00  0.00     0.286 C 
ATOM     19  N   UNL d   1      15.428   1.101 -21.354  0.00  0.00     0.143 N 
ATOM     20  C   UNL d   1      15.903   0.709 -22.670  0.00  0.00     0.285 C 
ATOM     21  C   UNL d   1      14.178   0.431 -20.998  0.00  0.00     0.286 C 
ATOM     22  C   UNL d   1      13.678   0.873 -19.612  0.00  0.00     0.286 C 
ENDBRANCH   1  16
BRANCH  13  23
ATOM     23  C   UNL d   1      16.352   6.372 -17.457  0.00  0.00     0.206 A 
ATOM     24  N   UNL d   1      17.001   7.118 -18.319  0.00  0.00    -0.130 NA
ATOM     25  N   UNL d   1      18.213   7.130 -17.720  0.00  0.00    -0.149 N 
ATOM     26  N   UNL d   1      18.272   6.408 -16.586  0.00  0.00    -0.045 NA
ATOM     27  C   UNL d   1      19.351   7.863 -18.224  0.00  0.00     0.180 C 
ATOM     28  N   UNL d   1      17.099   5.887 -16.424  0.00  0.00    -0.108 NA
ENDBRANCH  13  23
TORSDOF 2
