REMARK  2 active torsions:
REMARK  status: ('A' for Active; 'I' for Inactive)
REMARK    1  A    between atoms: O_2  and  C_3 
REMARK    2  A    between atoms: C_14  and  C_16 
ROOT
ATOM      1  C   UNL d   1       6.489   0.067 -17.584  0.00  0.00     0.094 A 
ATOM      2  C   UNL d   1       6.180   0.283 -16.215  0.00  0.00     0.024 A 
ATOM      3  C   UNL d   1       6.873   1.237 -15.458  0.00  0.00    -0.001 A 
ATOM      4  C   UNL d   1       7.920   1.985 -16.038  0.00  0.00     0.005 A 
ATOM      5  C   UNL d   1       8.193   1.828 -17.413  0.00  0.00    -0.020 A 
ATOM      6  C   UNL d   1       7.499   0.869 -18.175  0.00  0.00     0.020 A 
ATOM      7  C   UNL d   1       9.261   2.700 -18.059  0.00  0.00     0.061 C 
ATOM      8  C   UNL d   1       9.588   3.968 -17.256  0.00  0.00     0.255 C 
ATOM      9  N   UNL d   1       9.890   3.564 -15.896  0.00  0.00     0.140 N 
ATOM     10  C   UNL d   1      10.408   4.722 -15.170  0.00  0.00     0.254 C 
ATOM     11  C   UNL d   1      10.751   4.288 -13.742  0.00  0.00     0.070 C 
ATOM     12  C   UNL d   1       9.457   3.912 -13.004  0.00  0.00     0.150 C 
ATOM     13  O   UNL d   1       9.871   3.605 -11.717  0.00  0.00    -0.221 OA
ATOM     14  C   UNL d   1       8.992   2.658 -13.790  0.00  0.00     0.073 C 
ATOM     15  C   UNL d   1       8.675   3.047 -15.239  0.00  0.00     0.244 C 
ENDROOT
BRANCH  12  16
ATOM     16  C   UNL d   1       8.407   5.019 -12.828  0.00  0.00     0.005 C 
ATOM     17  C   UNL d   1       8.840   6.327 -12.497  0.00  0.00    -0.001 C 
ATOM     18  C   UNL d   1       7.928   7.370 -12.410  0.00  0.00     0.011 C 
ATOM     19  C   UNL d   1       6.551   7.103 -12.478  0.00  0.00     0.058 C 
ATOM     20  C   UNL d   1       6.086   5.793 -12.696  0.00  0.00     0.011 C 
ATOM     21 CL   UNL d   1       5.455   8.386 -12.431  0.00  0.00    -0.082 Cl
ATOM     22  C   UNL d   1       7.001   4.762 -12.864  0.00  0.00    -0.001 C 
ENDBRANCH  12  16
BRANCH   1  23
ATOM     23  O   UNL d   1       5.869  -0.869 -18.389  0.00  0.00    -0.328 OA
ATOM     24  C   UNL d   1       4.862  -1.677 -17.788  0.00  0.00     0.181 C 
ENDBRANCH   1  23
TORSDOF 2
