REMARK  7 active torsions:
REMARK  status: ('A' for Active; 'I' for Inactive)
REMARK    1  A    between atoms: N_11  and  C_12 
REMARK    2  A    between atoms: C_12  and  C_13 
REMARK    3  A    between atoms: C_13  and  C_14 
REMARK    4  A    between atoms: C_14  and  C_15 
REMARK    5  A    between atoms: C_15  and  N_16 
REMARK       I    between atoms: N_16  and  C_17 
REMARK    6  A    between atoms: C_17  and  C_19 
REMARK    7  A    between atoms: C_22  and  C_23 
ROOT
ATOM      1  N   UNL d   1      15.863   2.580 -20.898  0.00  0.00    -0.191 NA
ATOM      2  C   UNL d   1      15.004   2.042 -20.345  0.00  0.00     0.101 C 
ATOM      3  C   UNL d   1      13.925   1.364 -19.647  0.00  0.00     0.068 A 
ATOM      4  C   UNL d   1      13.546   0.064 -20.037  0.00  0.00     0.012 A 
ATOM      5  C   UNL d   1      12.524  -0.609 -19.341  0.00  0.00     0.025 A 
ATOM      6  C   UNL d   1      11.857   0.008 -18.267  0.00  0.00     0.090 A 
ATOM      7  C   UNL d   1      12.244   1.320 -17.886  0.00  0.00     0.003 A 
ATOM      8  C   UNL d   1      13.276   1.995 -18.569  0.00  0.00     0.008 A 
ATOM      9  C   UNL d   1      11.555   1.927 -16.691  0.00  0.00     0.062 C 
ATOM     10  C   UNL d   1      11.289   3.422 -16.630  0.00  0.00     0.255 C 
ATOM     11  N   UNL d   1      10.372   3.475 -15.487  0.00  0.00     0.137 N 
ATOM     12  C   UNL d   1       9.533   2.264 -15.524  0.00  0.00     0.253 C 
ATOM     13  C   UNL d   1      10.154   1.401 -16.616  0.00  0.00     0.070 C 
ATOM     14  C   UNL d   1      10.216  -0.120 -16.472  0.00  0.00     0.151 C 
ATOM     15  O   UNL d   1      10.836  -0.690 -17.638  0.00  0.00    -0.331 OA
ENDROOT
BRANCH  11  16
ATOM     16  C   UNL d   1       9.619   4.717 -15.454  0.00  0.00     0.250 C 
BRANCH  16  17
ATOM     17  C   UNL d   1       8.672   4.806 -14.240  0.00  0.00     0.037 C 
BRANCH  17  18
ATOM     18  C   UNL d   1       9.403   5.113 -12.930  0.00  0.00     0.029 C 
BRANCH  18  19
ATOM     19  C   UNL d   1       8.482   5.751 -11.884  0.00  0.00     0.129 C 
BRANCH  19  20
ATOM     20  N   UNL d   1       9.217   6.075 -10.669  0.00  0.00    -0.234 NA
ATOM     21  C   UNL d   1       9.745   7.279 -10.381  0.00  0.00     0.275 C 
ATOM     22  O   UNL d   1       9.860   8.193 -11.200  0.00  0.00    -0.266 OA
BRANCH  21  23
ATOM     23  C   UNL d   1      10.206   7.455  -8.966  0.00  0.00     0.058 A 
ATOM     24  C   UNL d   1       9.568   6.772  -7.905  0.00  0.00     0.005 A 
ATOM     25  C   UNL d   1       9.986   6.972  -6.580  0.00  0.00     0.000 A 
ATOM     26  C   UNL d   1      11.024   7.878  -6.277  0.00  0.00     0.000 A 
ATOM     27  C   UNL d   1      11.628   8.591  -7.333  0.00  0.00     0.000 A 
ATOM     28  C   UNL d   1      11.224   8.386  -8.666  0.00  0.00     0.005 A 
BRANCH  26  29
ATOM     29  C   UNL d   1      11.457   8.077  -4.887  0.00  0.00     0.000 A 
ATOM     30  C   UNL d   1      11.523   9.374  -4.333  0.00  0.00     0.000 A 
ATOM     31  C   UNL d   1      11.932   9.559  -3.002  0.00  0.00     0.000 A 
ATOM     32  C   UNL d   1      12.306   8.454  -2.215  0.00  0.00     0.000 A 
ATOM     33  C   UNL d   1      12.247   7.156  -2.754  0.00  0.00     0.000 A 
ATOM     34  C   UNL d   1      11.820   6.975  -4.083  0.00  0.00     0.000 A 
ENDBRANCH  26  29
ENDBRANCH  21  23
ENDBRANCH  19  20
ENDBRANCH  18  19
ENDBRANCH  17  18
ENDBRANCH  16  17
ENDBRANCH  11  16
TORSDOF 7
