REMARK  8 active torsions:
REMARK  status: ('A' for Active; 'I' for Inactive)
REMARK    1  A    between atoms: C_7  and  C_8 
REMARK    2  A    between atoms: C_8  and  C_9 
REMARK    3  A    between atoms: C_9  and  C_10 
REMARK    4  A    between atoms: C_10  and  N_11 
REMARK       I    between atoms: N_11  and  C_12 
REMARK       I    between atoms: N_14  and  C_15 
REMARK       I    between atoms: C_15  and  N_17 
REMARK    5  A    between atoms: N_17  and  C_18 
REMARK    6  A    between atoms: C_18  and  C_19 
REMARK    7  A    between atoms: C_19  and  C_21 
REMARK    8  A    between atoms: C_21  and  C_22 
ROOT
ATOM      1  N   UNL d   1       8.075   6.413 -11.630  0.00  0.00    -0.241 NA
ATOM      2  C   UNL d   1       7.457   5.403 -12.360  0.00  0.00     0.237 C 
ATOM      3  N   UNL d   1       6.096   5.408 -12.129  0.00  0.00    -0.060 NA
ATOM      4  N   UNL d   1       8.116   4.598 -13.137  0.00  0.00    -0.159 NA
ATOM      5  C   UNL d   1       7.448   3.595 -13.828  0.00  0.00     0.367 C 
ATOM      6  O   UNL d   1       6.289   3.221 -13.700  0.00  0.00    -0.243 OA
ATOM      7  N   UNL d   1       8.246   3.071 -14.779  0.00  0.00    -0.217 NA
ENDROOT
BRANCH   1   8
ATOM      8  C   UNL d   1       9.477   6.733 -11.682  0.00  0.00     0.129 C 
BRANCH   8   9
ATOM      9  C   UNL d   1       9.885   7.689 -10.548  0.00  0.00     0.032 C 
BRANCH   9  10
ATOM     10  C   UNL d   1      10.106   6.958  -9.213  0.00  0.00     0.036 C 
BRANCH  10  11
ATOM     11  C   UNL d   1      10.590   7.857  -8.122  0.00  0.00     0.023 A 
ATOM     12  C   UNL d   1      11.848   8.389  -7.954  0.00  0.00     0.063 A 
ATOM     13  C   UNL d   1      13.051   8.193  -8.830  0.00  0.00     0.052 C 
ATOM     14  N   UNL d   1      11.964   9.191  -6.818  0.00  0.00    -0.230 NA
ATOM     15  C   UNL d   1      10.821   9.283  -6.141  0.00  0.00     0.180 A 
ATOM     16  N   UNL d   1      10.662  10.015  -4.981  0.00  0.00    -0.072 NA
ATOM     17  S   UNL d   1       9.499   8.385  -6.862  0.00  0.00    -0.057 SA
ENDBRANCH  10  11
ENDBRANCH   9  10
ENDBRANCH   8   9
ENDBRANCH   1   8
BRANCH   7  18
ATOM     18  C   UNL d   1       7.801   2.158 -15.834  0.00  0.00     0.131 C 
BRANCH  18  19
ATOM     19  C   UNL d   1       8.049   0.672 -15.461  0.00  0.00     0.025 C 
ATOM     20  C   UNL d   1       7.035   0.193 -14.411  0.00  0.00     0.002 C 
BRANCH  19  21
ATOM     21  C   UNL d   1       9.496   0.344 -15.017  0.00  0.00     0.002 C 
BRANCH  21  22
ATOM     22  C   UNL d   1      10.634   0.751 -15.976  0.00  0.00     0.000 C 
ATOM     23  C   UNL d   1      10.290   0.437 -17.454  0.00  0.00     0.000 C 
ATOM     24  C   UNL d   1      11.401   0.913 -18.401  0.00  0.00     0.000 C 
ATOM     25  C   UNL d   1      11.742   2.400 -18.171  0.00  0.00     0.000 C 
ATOM     26  C   UNL d   1      12.186   2.654 -16.723  0.00  0.00     0.000 C 
ATOM     27  C   UNL d   1      11.069   2.231 -15.761  0.00  0.00     0.000 C 
ENDBRANCH  21  22
ENDBRANCH  19  21
ENDBRANCH  18  19
ENDBRANCH   7  18
TORSDOF 8
