REMARK  3 active torsions:
REMARK  status: ('A' for Active; 'I' for Inactive)
REMARK    1  A    between atoms: C_5  and  C_6 
REMARK    2  A    between atoms: C_6  and  N_7 
REMARK    3  A    between atoms: N_10  and  C_11 
ROOT
ATOM      1  N   UNL d   1      10.369   0.483 -17.989  0.00  0.00     0.144 N 
ATOM      2  C   UNL d   1      11.023   0.540 -16.693  0.00  0.00     0.268 C 
ATOM      3  C   UNL d   1      10.305   1.565 -15.812  0.00  0.00     0.112 C 
ATOM      4  N   UNL d   1       8.884   1.256 -15.649  0.00  0.00    -0.248 NA
ATOM      5  C   UNL d   1       8.226   1.029 -16.939  0.00  0.00     0.112 C 
ATOM      6  C   UNL d   1       8.992   0.017 -17.799  0.00  0.00     0.268 C 
ENDROOT
BRANCH   4   7
ATOM      7  C   UNL d   1       8.176   2.099 -14.768  0.00  0.00     0.039 A 
ATOM      8  C   UNL d   1       8.777   3.240 -14.178  0.00  0.00     0.037 A 
ATOM      9  C   UNL d   1       8.046   4.088 -13.333  0.00  0.00     0.117 A 
ATOM     10  C   UNL d   1       6.681   3.828 -13.072  0.00  0.00     0.116 A 
ATOM     11  O   UNL d   1       8.704   5.165 -12.797  0.00  0.00    -0.326 OA
ATOM     12  C   UNL d   1       6.079   2.684 -13.625  0.00  0.00     0.027 A 
ATOM     13  O   UNL d   1       5.946   4.658 -12.275  0.00  0.00    -0.326 OA
ATOM     14  C   UNL d   1       6.822   1.821 -14.461  0.00  0.00     0.013 A 
ATOM     15  C   UNL d   1       6.561   5.921 -12.034  0.00  0.00     0.181 C 
ATOM     16  C   UNL d   1       8.049   5.747 -11.688  0.00  0.00     0.181 C 
ENDBRANCH   4   7
BRANCH   1  17
ATOM     17  C   UNL d   1      11.095  -0.426 -18.873  0.00  0.00     0.277 C 
BRANCH  17  18
ATOM     18  C   UNL d   1      12.468   0.084 -19.275  0.00  0.00     0.011 A 
ATOM     19  C   UNL d   1      13.465  -0.839 -19.648  0.00  0.00    -0.000 A 
ATOM     20  C   UNL d   1      14.742  -0.387 -20.039  0.00  0.00     0.029 A 
ATOM     21  C   UNL d   1      15.036   0.991 -20.038  0.00  0.00     0.140 A 
ATOM     22  F   UNL d   1      16.269   1.429 -20.384  0.00  0.00    -0.204 F 
ATOM     23  C   UNL d   1      14.046   1.919 -19.662  0.00  0.00     0.029 A 
ATOM     24  C   UNL d   1      12.763   1.468 -19.299  0.00  0.00    -0.000 A 
ENDBRANCH  17  18
ENDBRANCH   1  17
TORSDOF 3
