REMARK  2 active torsions:
REMARK  status: ('A' for Active; 'I' for Inactive)
REMARK    1  A    between atoms: N_5  and  C_6 
REMARK    2  A    between atoms: C_18  and  C_19 
ROOT
ATOM      1  C   UNL d   1       9.417   2.979 -16.496  0.00  0.00     0.246 C 
ATOM      2  C   UNL d   1       9.035   2.401 -15.114  0.00  0.00     0.065 C 
ATOM      3  C   UNL d   1       8.672   3.440 -14.061  0.00  0.00    -0.014 A 
ATOM      4  C   UNL d   1       7.336   3.618 -13.648  0.00  0.00    -0.004 A 
ATOM      5  C   UNL d   1       7.033   4.567 -12.648  0.00  0.00    -0.000 A 
ATOM      6  C   UNL d   1       8.059   5.338 -12.068  0.00  0.00     0.001 A 
ATOM      7  C   UNL d   1       9.393   5.159 -12.479  0.00  0.00     0.006 A 
ATOM      8  C   UNL d   1       9.692   4.207 -13.472  0.00  0.00     0.025 A 
ATOM      9  S   UNL d   1      11.341   4.000 -14.038  0.00  0.00    -0.087 SA
ATOM     10  C   UNL d   1      11.147   4.767 -15.609  0.00  0.00     0.027 A 
ATOM     11  C   UNL d   1      11.948   5.895 -15.870  0.00  0.00     0.006 A 
ATOM     12  C   UNL d   1      11.869   6.561 -17.110  0.00  0.00     0.004 A 
ATOM     13  C   UNL d   1      10.955   6.124 -18.088  0.00  0.00     0.039 A 
ATOM     14  C   UNL d   1      10.129   5.006 -17.807  0.00  0.00     0.001 A 
ATOM     15  C   UNL d   1      10.234   4.284 -16.593  0.00  0.00     0.015 A 
ENDROOT
BRANCH   1  16
ATOM     16  N   UNL d   1       9.984   1.915 -17.358  0.00  0.00     0.144 N 
ATOM     17  C   UNL d   1      11.418   1.715 -17.120  0.00  0.00     0.286 C 
ATOM     18  C   UNL d   1      11.985   0.569 -17.970  0.00  0.00     0.286 C 
ATOM     19  N   UNL d   1      11.751   0.801 -19.393  0.00  0.00     0.143 N 
ATOM     20  C   UNL d   1      12.322  -0.271 -20.198  0.00  0.00     0.285 C 
ATOM     21  C   UNL d   1      10.320   0.950 -19.631  0.00  0.00     0.286 C 
ATOM     22  C   UNL d   1       9.766   2.114 -18.799  0.00  0.00     0.286 C 
ENDBRANCH   1  16
BRANCH  13  23
ATOM     23  C   UNL d   1      10.881   6.784 -19.401  0.00  0.00     0.206 A 
ATOM     24  N   UNL d   1      11.893   7.461 -19.923  0.00  0.00    -0.130 NA
ATOM     25  N   UNL d   1      11.305   7.865 -21.066  0.00  0.00    -0.149 N 
ATOM     26  N   UNL d   1      10.034   7.441 -21.227  0.00  0.00    -0.045 NA
ATOM     27  C   UNL d   1      11.982   8.680 -22.047  0.00  0.00     0.180 C 
ATOM     28  N   UNL d   1       9.756   6.741 -20.174  0.00  0.00    -0.108 NA
ENDBRANCH  13  23
TORSDOF 2
