REMARK  5 active torsions:
REMARK  status: ('A' for Active; 'I' for Inactive)
REMARK    1  A    between atoms: N_11  and  C_12 
REMARK    2  A    between atoms: C_12  and  C_13 
REMARK    3  A    between atoms: C_13  and  C_14 
REMARK    4  A    between atoms: C_14  and  N_15 
REMARK    5  A    between atoms: N_18  and  C_19 
ROOT
ATOM      1  N   UNL d   1       9.577   6.387  -9.708  0.00  0.00     0.141 N 
ATOM      2  C   UNL d   1      10.086   7.765  -9.738  0.00  0.00     0.274 C 
ATOM      3  C   UNL d   1      11.245   7.947  -8.734  0.00  0.00     0.137 C 
ATOM      4  N   UNL d   1      10.836   7.532  -7.395  0.00  0.00    -0.344 N 
ATOM      5  C   UNL d   1      10.208   6.220  -7.337  0.00  0.00     0.137 C 
ATOM      6  C   UNL d   1       9.074   6.100  -8.363  0.00  0.00     0.274 C 
ENDROOT
BRANCH   1   7
ATOM      7  C   UNL d   1       8.471   6.242 -10.658  0.00  0.00     0.252 C 
BRANCH   7   8
ATOM      8  C   UNL d   1       8.757   5.127 -11.658  0.00  0.00     0.060 C 
BRANCH   8   9
ATOM      9  C   UNL d   1       7.779   5.187 -12.855  0.00  0.00     0.111 C 
BRANCH   9  10
ATOM     10  N   UNL d   1       7.817   3.931 -13.643  0.00  0.00    -0.299 N 
ATOM     11  C   UNL d   1       6.697   3.149 -13.705  0.00  0.00     0.238 C 
ATOM     12  O   UNL d   1       5.639   3.420 -13.133  0.00  0.00    -0.272 OA
ATOM     13  C   UNL d   1       6.756   1.887 -14.567  0.00  0.00     0.093 C 
ATOM     14  C   UNL d   1       8.139   1.224 -14.571  0.00  0.00     0.038 C 
ATOM     15  C   UNL d   1       9.239   2.241 -14.782  0.00  0.00    -0.006 A 
ATOM     16  C   UNL d   1       9.039   3.560 -14.312  0.00  0.00     0.058 A 
ATOM     17  C   UNL d   1      10.448   1.884 -15.407  0.00  0.00    -0.003 A 
ATOM     18  C   UNL d   1      10.087   4.509 -14.483  0.00  0.00     0.017 A 
ATOM     19  C   UNL d   1      11.297   4.139 -15.093  0.00  0.00     0.002 A 
ATOM     20  C   UNL d   1      11.485   2.833 -15.563  0.00  0.00    -0.000 A 
ENDBRANCH   9  10
ENDBRANCH   8   9
ENDBRANCH   7   8
ENDBRANCH   1   7
BRANCH   4  21
ATOM     21  C   UNL d   1      11.002   8.337  -6.254  0.00  0.00     0.068 A 
ATOM     22  C   UNL d   1      11.463   7.845  -5.011  0.00  0.00     0.084 A 
ATOM     23  C   UNL d   1      11.637   8.652  -3.883  0.00  0.00     0.070 A 
ATOM     24 CL   UNL d   1      11.861   6.219  -4.780  0.00  0.00    -0.080 Cl
ATOM     25  C   UNL d   1      11.295   9.992  -3.966  0.00  0.00     0.012 A 
ATOM     26 CL   UNL d   1      12.236   8.023  -2.388  0.00  0.00    -0.081 Cl
ATOM     27  C   UNL d   1      10.832  10.509  -5.187  0.00  0.00     0.002 A 
ATOM     28  C   UNL d   1      10.691   9.700  -6.325  0.00  0.00     0.018 A 
ENDBRANCH   4  21
TORSDOF 5
