REMARK  2 active torsions:
REMARK  status: ('A' for Active; 'I' for Inactive)
REMARK    1  A    between atoms: C_2  and  N_3 
REMARK    2  A    between atoms: C_7  and  C_8 
ROOT
ATOM      1  C   UNL d   1      10.449   8.139  -6.752  0.00  0.00     0.038 A 
ATOM      2  C   UNL d   1      10.223   9.460  -6.956  0.00  0.00     0.100 A 
ATOM      3  N   UNL d   1      10.759  10.204  -5.935  0.00  0.00    -0.244 NA
ATOM      4  C   UNL d   1      11.232   9.391  -4.952  0.00  0.00     0.082 A 
ATOM      5  C   UNL d   1      11.746   9.681  -3.670  0.00  0.00     0.020 A 
ATOM      6  C   UNL d   1      12.241   8.632  -2.907  0.00  0.00     0.013 A 
ATOM      7  C   UNL d   1      12.110   7.312  -3.367  0.00  0.00     0.058 A 
ATOM      8 CL   UNL d   1      12.645   6.088  -2.313  0.00  0.00    -0.082 Cl
ATOM      9  C   UNL d   1      11.522   7.013  -4.619  0.00  0.00     0.013 A 
ATOM     10  C   UNL d   1      11.090   8.065  -5.452  0.00  0.00     0.021 A 
ENDROOT
BRANCH   1  11
ATOM     11  C   UNL d   1      10.012   7.069  -7.616  0.00  0.00     0.082 A 
ATOM     12  N   UNL d   1      10.536   6.850  -8.885  0.00  0.00    -0.309 N 
ATOM     13  C   UNL d   1       9.924   5.732  -9.301  0.00  0.00     0.179 A 
ATOM     14  N   UNL d   1       9.024   5.231  -8.463  0.00  0.00    -0.223 NA
ATOM     15  C   UNL d   1       9.034   6.130  -7.406  0.00  0.00     0.118 A 
BRANCH  12  16
ATOM     16  C   UNL d   1      11.581   7.591  -9.568  0.00  0.00     0.108 C 
ATOM     17  C   UNL d   1      11.089   8.914 -10.174  0.00  0.00     0.027 C 
ENDBRANCH  12  16
ENDBRANCH   1  11
TORSDOF 2
