REMARK  6 active torsions:
REMARK  status: ('A' for Active; 'I' for Inactive)
REMARK       I    between atoms: C_2  and  N_3 
REMARK    1  A    between atoms: C_2  and  C_27 
REMARK    2  A    between atoms: N_3  and  C_4 
REMARK    3  A    between atoms: C_7  and  C_8 
REMARK    4  A    between atoms: C_8  and  C_9 
REMARK    5  A    between atoms: C_9  and  N_10 
REMARK    6  A    between atoms: N_13  and  C_14 
ROOT
ATOM      1  C   UNL d   1       8.818   5.187 -13.113  0.00  0.00     0.035 C 
ENDROOT
BRANCH   1   2
ATOM      2  C   UNL d   1       9.400   5.743 -11.811  0.00  0.00     0.002 C 
ATOM      3  C   UNL d   1       8.927   7.171 -11.555  0.00  0.00     0.002 C 
ATOM      4  C   UNL d   1       9.486   7.709 -10.216  0.00  0.00     0.024 C 
ATOM      5  C   UNL d   1       9.165   6.773  -9.017  0.00  0.00     0.107 C 
ATOM      6  C   UNL d   1       9.581   5.331  -9.284  0.00  0.00     0.024 C 
ATOM      7  C   UNL d   1       9.055   4.820 -10.634  0.00  0.00     0.002 C 
BRANCH   5   8
ATOM      8  N   UNL d   1       9.707   7.248  -7.755  0.00  0.00    -0.236 NA
ATOM      9  C   UNL d   1      10.984   7.568  -7.500  0.00  0.00     0.275 C 
ATOM     10  O   UNL d   1      11.879   7.639  -8.335  0.00  0.00    -0.266 OA
BRANCH   9  11
ATOM     11  C   UNL d   1      11.304   7.790  -6.069  0.00  0.00     0.058 A 
ATOM     12  C   UNL d   1      11.444   6.682  -5.217  0.00  0.00     0.006 A 
ATOM     13  C   UNL d   1      11.829   6.854  -3.882  0.00  0.00     0.012 A 
ATOM     14  C   UNL d   1      12.081   8.156  -3.414  0.00  0.00     0.058 A 
ATOM     15  C   UNL d   1      11.940   9.269  -4.268  0.00  0.00     0.012 A 
ATOM     16 CL   UNL d   1      12.562   8.387  -1.777  0.00  0.00    -0.082 Cl
ATOM     17  C   UNL d   1      11.570   9.091  -5.611  0.00  0.00     0.006 A 
ENDBRANCH   9  11
ENDBRANCH   5   8
ENDBRANCH   1   2
BRANCH   1  18
ATOM     18  C   UNL d   1       9.691   4.083 -13.728  0.00  0.00     0.250 C 
BRANCH  18  19
ATOM     19  N   UNL d   1       9.067   3.595 -14.951  0.00  0.00     0.141 N 
ATOM     20  C   UNL d   1       8.100   2.551 -14.610  0.00  0.00     0.274 C 
ATOM     21  C   UNL d   1       7.394   2.022 -15.862  0.00  0.00     0.138 C 
ATOM     22  N   UNL d   1       8.373   1.577 -16.851  0.00  0.00    -0.330 N 
ATOM     23  C   UNL d   1       9.445   2.541 -17.144  0.00  0.00     0.138 C 
ATOM     24  C   UNL d   1      10.089   3.027 -15.839  0.00  0.00     0.274 C 
BRANCH  22  25
ATOM     25  C   UNL d   1       8.298   0.330 -17.461  0.00  0.00     0.138 A 
ATOM     26  C   UNL d   1       7.071  -0.294 -17.782  0.00  0.00     0.036 A 
ATOM     27  C   UNL d   1       7.047  -1.543 -18.390  0.00  0.00     0.095 A 
ATOM     28  C   UNL d   1       5.657   0.168 -17.611  0.00  0.00     0.064 C 
ATOM     29  C   UNL d   1       8.256  -2.196 -18.672  0.00  0.00     0.045 A 
ATOM     30  O   UNL d   1       5.788  -1.992 -18.655  0.00  0.00    -0.331 OA
ATOM     31  C   UNL d   1       9.442  -1.522 -18.330  0.00  0.00     0.103 A 
ATOM     32  N   UNL d   1       9.471  -0.299 -17.750  0.00  0.00    -0.228 NA
ATOM     33  C   UNL d   1       4.868  -0.928 -18.360  0.00  0.00     0.154 C 
ENDBRANCH  22  25
ENDBRANCH  18  19
ENDBRANCH   1  18
TORSDOF 6
