REMARK  3 active torsions:
REMARK  status: ('A' for Active; 'I' for Inactive)
REMARK    1  A    between atoms: C_2  and  C_3 
REMARK    2  A    between atoms: C_3  and  N_4 
REMARK    3  A    between atoms: C_6  and  C_7 
ROOT
ATOM      1  N   UNL d   1       8.666   6.065 -11.847  0.00  0.00     0.140 N 
ATOM      2  C   UNL d   1       9.365   7.037 -10.989  0.00  0.00     0.284 C 
ATOM      3  C   UNL d   1      10.020   6.408  -9.749  0.00  0.00     0.172 C 
ATOM      4  O   UNL d   1       9.109   5.586  -9.040  0.00  0.00    -0.348 OA
ATOM      5  C   UNL d   1       8.563   4.592  -9.881  0.00  0.00     0.176 C 
ATOM      6  C   UNL d   1       7.794   5.194 -11.062  0.00  0.00     0.249 C 
ATOM      7  C   UNL d   1       7.132   4.092 -11.920  0.00  0.00     0.038 C 
ENDROOT
BRANCH   3   8
ATOM      8  C   UNL d   1      10.656   7.441  -8.870  0.00  0.00     0.026 A 
ATOM      9  C   UNL d   1       9.919   8.004  -7.812  0.00  0.00     0.098 A 
ATOM     10  N   UNL d   1      10.432   8.917  -6.966  0.00  0.00    -0.230 NA
ATOM     11  C   UNL d   1      11.713   9.276  -7.151  0.00  0.00     0.151 A 
ATOM     12  C   UNL d   1      12.530   8.786  -8.181  0.00  0.00     0.033 A 
ATOM     13  N   UNL d   1      12.216  10.226  -6.276  0.00  0.00    -0.080 NA
ATOM     14  C   UNL d   1      11.979   7.867  -9.081  0.00  0.00     0.002 A 
ENDBRANCH   3   8
BRANCH   1  15
ATOM     15  C   UNL d   1       7.936   6.736 -12.920  0.00  0.00     0.250 C 
BRANCH  15  16
ATOM     16  C   UNL d   1       6.864   7.750 -12.514  0.00  0.00     0.035 C 
ATOM     17  C   UNL d   1       5.759   7.975 -13.488  0.00  0.00     0.002 C 
ENDBRANCH  15  16
ENDBRANCH   1  15
TORSDOF 3
