REMARK  2 active torsions:
REMARK  status: ('A' for Active; 'I' for Inactive)
REMARK    1  A    between atoms: O_2  and  C_3 
REMARK    2  A    between atoms: C_6  and  C_7 
REMARK       I    between atoms: C_7  and  N_9 
ROOT
ATOM      1  C   UNL d   1       9.869   6.812  -9.361  0.00  0.00     0.094 A 
ATOM      2  C   UNL d   1       9.180   6.645  -8.134  0.00  0.00     0.024 A 
ATOM      3  C   UNL d   1       9.577   7.364  -6.996  0.00  0.00     0.007 A 
ATOM      4  C   UNL d   1      10.722   8.191  -7.020  0.00  0.00     0.056 A 
ATOM      5  C   UNL d   1      11.394   8.383  -8.251  0.00  0.00     0.007 A 
ATOM      6  C   UNL d   1      10.975   7.687  -9.404  0.00  0.00     0.024 A 
ENDROOT
BRANCH   4   7
ATOM      7  C   UNL d   1      11.161   8.967  -5.807  0.00  0.00     0.263 C 
ATOM      8  O   UNL d   1      11.248  10.190  -5.920  0.00  0.00    -0.267 OA
ATOM      9  N   UNL d   1      11.459   8.248  -4.699  0.00  0.00    -0.267 N 
ATOM     10  C   UNL d   1      11.802   8.779  -3.493  0.00  0.00     0.240 C 
ATOM     11  C   UNL d   1      11.482   6.775  -4.587  0.00  0.00     0.112 C 
ATOM     12  C   UNL d   1      12.057   7.724  -2.437  0.00  0.00     0.090 C 
ATOM     13  O   UNL d   1      11.855   9.969  -3.175  0.00  0.00    -0.272 OA
ATOM     14  C   UNL d   1      11.689   6.420  -3.121  0.00  0.00     0.035 C 
ENDBRANCH   4   7
BRANCH   1  15
ATOM     15  O   UNL d   1       9.529   6.165 -10.530  0.00  0.00    -0.328 OA
ATOM     16  C   UNL d   1       8.344   5.382 -10.530  0.00  0.00     0.181 C 
ENDBRANCH   1  15
TORSDOF 2
