REMARK  2 active torsions:
REMARK  status: ('A' for Active; 'I' for Inactive)
REMARK    1  A    between atoms: C_2  and  O_3 
REMARK    2  A    between atoms: O_3  and  C_4 
REMARK       I    between atoms: C_4  and  N_6 
ROOT
ATOM      1  C   UNL d   1       6.485  -0.554 -17.174  0.00  0.00     0.365 C 
ATOM      2  O   UNL d   1       6.833  -1.003 -18.272  0.00  0.00    -0.238 OA
ATOM      3  N   UNL d   1       6.720   0.742 -16.710  0.00  0.00    -0.296 N 
ATOM      4  C   UNL d   1       6.404   1.189 -15.343  0.00  0.00     0.111 C 
ATOM      5  C   UNL d   1       7.466   0.790 -14.318  0.00  0.00     0.050 C 
ATOM      6  C   UNL d   1       8.765   1.592 -14.450  0.00  0.00    -0.024 A 
ATOM      7  C   UNL d   1       8.863   2.836 -13.779  0.00  0.00    -0.004 A 
ATOM      8  C   UNL d   1      10.052   3.587 -13.805  0.00  0.00    -0.000 A 
ATOM      9  C   UNL d   1      11.159   3.127 -14.542  0.00  0.00    -0.000 A 
ATOM     10  C   UNL d   1      11.060   1.917 -15.254  0.00  0.00    -0.004 A 
ATOM     11  C   UNL d   1       9.879   1.146 -15.215  0.00  0.00    -0.022 A 
ATOM     12  C   UNL d   1       9.850  -0.130 -16.039  0.00  0.00     0.052 C 
ATOM     13  C   UNL d   1       9.962   0.072 -17.533  0.00  0.00    -0.015 A 
ATOM     14  C   UNL d   1      10.716  -0.821 -18.344  0.00  0.00     0.003 A 
ATOM     15  C   UNL d   1      10.647  -0.546 -19.682  0.00  0.00     0.035 A 
ATOM     16  S   UNL d   1       9.642   0.828 -19.997  0.00  0.00    -0.091 SA
ATOM     17  C   UNL d   1       9.349   1.050 -18.292  0.00  0.00     0.006 A 
ATOM     18  C   UNL d   1       8.466   2.173 -17.864  0.00  0.00     0.057 C 
ATOM     19  C   UNL d   1       6.997   1.794 -17.676  0.00  0.00     0.112 C 
ENDROOT
BRANCH   1  20
ATOM     20  O   UNL d   1       5.723  -1.227 -16.301  0.00  0.00    -0.285 OA
BRANCH  20  21
ATOM     21  C   UNL d   1       5.050  -2.399 -16.723  0.00  0.00     0.154 C 
ATOM     22  C   UNL d   1       3.890  -2.013 -17.663  0.00  0.00     0.035 C 
ENDBRANCH  20  21
ENDBRANCH   1  20
TORSDOF 2
