REMARK  8 active torsions:
REMARK  status: ('A' for Active; 'I' for Inactive)
REMARK    1  A    between atoms: O_2  and  C_3 
REMARK    2  A    between atoms: C_8  and  N_9 
REMARK    3  A    between atoms: N_12  and  C_13 
REMARK    4  A    between atoms: C_13  and  C_14 
REMARK    5  A    between atoms: C_14  and  C_15 
REMARK    6  A    between atoms: C_15  and  C_16 
REMARK    7  A    between atoms: C_16  and  N_17 
REMARK    8  A    between atoms: C_25  and  C_26 
ROOT
ATOM      1  C   UNL d   1       9.156   1.750 -14.711  0.00  0.00     0.104 C 
ENDROOT
BRANCH   1   2
ATOM      2  C   UNL d   1       8.969   3.235 -15.061  0.00  0.00     0.026 C 
BRANCH   2   3
ATOM      3  C   UNL d   1       9.963   4.148 -14.326  0.00  0.00     0.037 C 
BRANCH   3   4
ATOM      4  C   UNL d   1      11.375   4.202 -14.939  0.00  0.00     0.251 C 
BRANCH   4   5
ATOM      5  N   UNL d   1      11.483   5.296 -15.903  0.00  0.00     0.141 N 
ATOM      6  C   UNL d   1      12.836   5.856 -15.846  0.00  0.00     0.274 C 
ATOM      7  C   UNL d   1      12.976   7.033 -16.818  0.00  0.00     0.137 C 
ATOM      8  N   UNL d   1      12.629   6.615 -18.171  0.00  0.00    -0.343 N 
ATOM      9  C   UNL d   1      11.329   5.969 -18.284  0.00  0.00     0.137 C 
ATOM     10  C   UNL d   1      11.235   4.818 -17.271  0.00  0.00     0.274 C 
BRANCH   8  11
ATOM     11  C   UNL d   1      13.460   6.834 -19.286  0.00  0.00     0.079 A 
ATOM     12  C   UNL d   1      14.223   8.026 -19.419  0.00  0.00     0.110 A 
ATOM     13  C   UNL d   1      15.041   8.203 -20.564  0.00  0.00     0.026 A 
ATOM     14  C   UNL d   1      15.108   7.211 -21.559  0.00  0.00     0.002 A 
ATOM     15  C   UNL d   1      14.356   6.035 -21.429  0.00  0.00     0.002 A 
ATOM     16  C   UNL d   1      13.536   5.848 -20.300  0.00  0.00     0.019 A 
BRANCH  12  17
ATOM     17  O   UNL d   1      14.123   8.974 -18.423  0.00  0.00    -0.327 OA
ATOM     18  C   UNL d   1      14.772  10.220 -18.574  0.00  0.00     0.181 C 
ENDBRANCH  12  17
ENDBRANCH   8  11
ENDBRANCH   4   5
ENDBRANCH   3   4
ENDBRANCH   2   3
ENDBRANCH   1   2
BRANCH   1  19
ATOM     19  N   UNL d   1       8.179   0.920 -15.421  0.00  0.00    -0.316 N 
ATOM     20  C   UNL d   1       6.890   0.839 -15.001  0.00  0.00     0.257 C 
ATOM     21  C   UNL d   1       5.963  -0.043 -15.790  0.00  0.00     0.052 A 
ATOM     22  O   UNL d   1       6.460   1.439 -14.017  0.00  0.00    -0.267 OA
ATOM     23  C   UNL d   1       6.309  -0.469 -17.093  0.00  0.00    -0.016 A 
ATOM     24  C   UNL d   1       4.718  -0.418 -15.238  0.00  0.00     0.004 A 
ATOM     25  C   UNL d   1       7.655  -0.048 -17.672  0.00  0.00     0.051 C 
ATOM     26  C   UNL d   1       5.411  -1.275 -17.839  0.00  0.00    -0.004 A 
ATOM     27  C   UNL d   1       8.700   0.183 -16.578  0.00  0.00     0.109 C 
ATOM     28  C   UNL d   1       4.175  -1.635 -17.272  0.00  0.00    -0.000 A 
ATOM     29  C   UNL d   1       3.830  -1.212 -15.978  0.00  0.00     0.000 A 
BRANCH  26  30
ATOM     30  C   UNL d   1       5.747  -1.742 -19.188  0.00  0.00    -0.000 A 
ATOM     31  C   UNL d   1       6.567  -2.877 -19.366  0.00  0.00    -0.000 A 
ATOM     32  C   UNL d   1       6.923  -3.310 -20.659  0.00  0.00    -0.000 A 
ATOM     33  C   UNL d   1       6.452  -2.609 -21.785  0.00  0.00    -0.000 A 
ATOM     34  C   UNL d   1       5.628  -1.479 -21.618  0.00  0.00    -0.000 A 
ATOM     35  C   UNL d   1       5.277  -1.050 -20.322  0.00  0.00    -0.000 A 
ENDBRANCH  26  30
ENDBRANCH   1  19
TORSDOF 8
