REMARK  5 active torsions:
REMARK  status: ('A' for Active; 'I' for Inactive)
REMARK    1  A    between atoms: N_7  and  C_8 
REMARK    2  A    between atoms: C_8  and  C_9 
REMARK    3  A    between atoms: C_9  and  C_11 
REMARK    4  A    between atoms: C_11  and  N_12 
REMARK    5  A    between atoms: N_15  and  C_16 
ROOT
ATOM      1  C   UNL d   1      11.268   7.726  -5.412  0.00  0.00     0.066 A 
ATOM      2  C   UNL d   1      11.330   6.609  -4.546  0.00  0.00     0.018 A 
ATOM      3  C   UNL d   1      11.682   6.771  -3.195  0.00  0.00     0.002 A 
ATOM      4  C   UNL d   1      12.008   8.028  -2.691  0.00  0.00     0.001 A 
ATOM      5  C   UNL d   1      11.993   9.146  -3.548  0.00  0.00     0.012 A 
ATOM      6  C   UNL d   1      11.636   8.982  -4.909  0.00  0.00     0.084 A 
ATOM      7  C   UNL d   1      11.799  10.147  -5.769  0.00  0.00     0.102 C 
ATOM      8  N   UNL d   1      11.916  11.065  -6.456  0.00  0.00    -0.191 NA
ENDROOT
BRANCH   1   9
ATOM      9  N   UNL d   1      10.882   7.478  -6.716  0.00  0.00    -0.344 N 
ATOM     10  C   UNL d   1      10.031   8.354  -7.503  0.00  0.00     0.137 C 
ATOM     11  C   UNL d   1       8.976   7.508  -8.193  0.00  0.00     0.274 C 
ATOM     12  N   UNL d   1       9.509   6.475  -9.087  0.00  0.00     0.144 N 
ATOM     13  C   UNL d   1      10.313   5.608  -8.238  0.00  0.00     0.274 C 
ATOM     14  C   UNL d   1      11.437   6.400  -7.519  0.00  0.00     0.137 C 
BRANCH  12  15
ATOM     15  C   UNL d   1       8.443   5.721  -9.753  0.00  0.00     0.285 C 
BRANCH  15  16
ATOM     16  C   UNL d   1       8.832   4.722 -10.880  0.00  0.00     0.208 C 
ATOM     17  O   UNL d   1       7.558   4.227 -11.257  0.00  0.00    -0.219 OA
BRANCH  16  18
ATOM     18  C   UNL d   1       9.454   5.396 -12.139  0.00  0.00     0.148 C 
BRANCH  18  19
ATOM     19  N   UNL d   1       9.718   4.447 -13.263  0.00  0.00    -0.247 N 
ATOM     20  C   UNL d   1      10.926   4.082 -13.760  0.00  0.00     0.348 A 
ATOM     21  N   UNL d   1      10.773   3.173 -14.710  0.00  0.00    -0.213 NA
ATOM     22  O   UNL d   1      12.037   4.509 -13.468  0.00  0.00    -0.245 OA
ATOM     23  C   UNL d   1       9.395   2.912 -14.994  0.00  0.00     0.160 A 
ATOM     24  C   UNL d   1       9.072   3.335 -16.424  0.00  0.00     0.034 C 
ATOM     25  C   UNL d   1       8.747   3.868 -14.001  0.00  0.00     0.261 A 
ATOM     26  C   UNL d   1       9.071   1.445 -14.689  0.00  0.00     0.034 C 
ATOM     27  O   UNL d   1       7.537   4.090 -13.989  0.00  0.00    -0.270 OA
ENDBRANCH  18  19
ENDBRANCH  16  18
ENDBRANCH  15  16
ENDBRANCH  12  15
ENDBRANCH   1   9
TORSDOF 5
