REMARK  2 active torsions:
REMARK  status: ('A' for Active; 'I' for Inactive)
REMARK    1  A    between atoms: C_5  and  N_6 
REMARK       I    between atoms: N_6  and  C_7 
REMARK    2  A    between atoms: C_7  and  C_9 
ROOT
ATOM      1  C   UNL d   1      10.245   3.512 -15.552  0.00  0.00     0.153 C 
ATOM      2  C   UNL d   1       9.257   3.634 -14.617  0.00  0.00     0.153 C 
ATOM      3  O   UNL d   1       9.234   4.654 -13.731  0.00  0.00    -0.188 OA
ATOM      4  C   UNL d   1       8.124   2.684 -14.442  0.00  0.00     0.039 A 
ATOM      5  C   UNL d   1       6.922   3.058 -13.790  0.00  0.00     0.003 A 
ATOM      6  C   UNL d   1       5.864   2.135 -13.634  0.00  0.00     0.000 A 
ATOM      7  C   UNL d   1       5.977   0.831 -14.154  0.00  0.00     0.001 A 
ATOM      8  C   UNL d   1       7.151   0.448 -14.825  0.00  0.00     0.013 A 
ATOM      9  C   UNL d   1       8.206   1.373 -14.960  0.00  0.00     0.106 A 
ATOM     10  S   UNL d   1       9.676   0.887 -15.827  0.00  0.00     0.268 S 
ATOM     11  O   UNL d   1      10.659   0.407 -14.843  0.00  0.00    -0.200 OA
ATOM     12  O   UNL d   1       9.294   0.034 -16.962  0.00  0.00    -0.200 OA
ATOM     13  N   UNL d   1      10.255   2.393 -16.452  0.00  0.00    -0.245 N 
ATOM     14  C   UNL d   1      11.204   2.261 -17.577  0.00  0.00     0.144 C 
ENDROOT
BRANCH   1  15
ATOM     15  C   UNL d   1      11.286   4.551 -15.603  0.00  0.00     0.299 C 
ATOM     16  N   UNL d   1      11.286   5.177 -16.792  0.00  0.00    -0.181 NA
ATOM     17  O   UNL d   1      12.039   4.828 -14.662  0.00  0.00    -0.263 OA
BRANCH  16  18
ATOM     18  C   UNL d   1      12.165   6.181 -17.280  0.00  0.00     0.197 A 
ATOM     19  N   UNL d   1      13.090   6.804 -16.551  0.00  0.00    -0.219 NA
ATOM     20  C   UNL d   1      13.794   7.748 -17.304  0.00  0.00     0.103 A 
ATOM     21  C   UNL d   1      13.418   7.812 -18.622  0.00  0.00     0.030 A 
ATOM     22  C   UNL d   1      13.960   8.726 -19.669  0.00  0.00     0.040 C 
ATOM     23  S   UNL d   1      12.136   6.678 -18.967  0.00  0.00    -0.051 SA
ENDBRANCH  16  18
ENDBRANCH   1  15
TORSDOF 2
