REMARK  4 active torsions:
REMARK  status: ('A' for Active; 'I' for Inactive)
REMARK    1  A    between atoms: O_2  and  C_3 
REMARK    2  A    between atoms: C_9  and  C_10 
REMARK    3  A    between atoms: N_17  and  S_18 
REMARK    4  A    between atoms: S_18  and  C_21 
ROOT
ATOM      1  C   UNL d   1       7.961   0.963 -16.488  0.00  0.00     0.094 A 
ATOM      2  C   UNL d   1       8.847   1.001 -17.582  0.00  0.00     0.026 A 
ATOM      3  C   UNL d   1       9.848   1.984 -17.656  0.00  0.00     0.020 A 
ATOM      4  C   UNL d   1       9.970   2.950 -16.630  0.00  0.00     0.075 A 
ATOM      5  C   UNL d   1       9.078   2.955 -15.508  0.00  0.00     0.020 A 
ATOM      6  C   UNL d   1       8.098   1.929 -15.460  0.00  0.00     0.026 A 
ATOM      7  C   UNL d   1       9.451   4.092 -14.691  0.00  0.00     0.016 A 
ATOM      8  C   UNL d   1      10.535   4.693 -15.277  0.00  0.00     0.091 A 
ATOM      9  N   UNL d   1      10.851   4.014 -16.445  0.00  0.00    -0.231 N 
ENDROOT
BRANCH   9  10
ATOM     10  S   UNL d   1      12.139   4.500 -17.488  0.00  0.00     0.271 S 
ATOM     11  O   UNL d   1      13.120   5.169 -16.616  0.00  0.00    -0.200 OA
ATOM     12  O   UNL d   1      12.517   3.323 -18.286  0.00  0.00    -0.200 OA
BRANCH  10  13
ATOM     13  C   UNL d   1      11.384   5.718 -18.564  0.00  0.00     0.105 A 
ATOM     14  C   UNL d   1      10.095   5.501 -19.095  0.00  0.00     0.032 A 
ATOM     15  C   UNL d   1       9.500   6.450 -19.949  0.00  0.00     0.082 A 
ATOM     16  C   UNL d   1      10.234   7.627 -20.266  0.00  0.00     0.018 A 
ATOM     17  N   UNL d   1       8.263   6.228 -20.445  0.00  0.00    -0.244 NA
ATOM     18  C   UNL d   1      11.520   7.846 -19.730  0.00  0.00     0.002 A 
ATOM     19  C   UNL d   1       9.654   8.580 -21.126  0.00  0.00     0.003 A 
ATOM     20  C   UNL d   1      12.096   6.890 -18.874  0.00  0.00     0.013 A 
ATOM     21  C   UNL d   1       8.365   8.337 -21.634  0.00  0.00     0.021 A 
ATOM     22  C   UNL d   1       7.712   7.147 -21.264  0.00  0.00     0.099 A 
ENDBRANCH  10  13
ENDBRANCH   9  10
BRANCH   7  23
ATOM     23  C   UNL d   1       8.807   4.573 -13.448  0.00  0.00    -0.021 C 
ATOM     24  C   UNL d   1       9.504   5.624 -12.589  0.00  0.00     0.064 C 
ATOM     25  C   UNL d   1       8.561   6.279 -11.573  0.00  0.00     0.295 C 
ATOM     26  N   UNL d   1       7.873   5.251 -10.811  0.00  0.00     0.344 N 
ATOM     27  C   UNL d   1       6.992   4.481 -11.679  0.00  0.00     0.316 C 
ATOM     28  C   UNL d   1       7.625   4.089 -13.004  0.00  0.00     0.007 C 
ENDBRANCH   7  23
BRANCH   1  29
ATOM     29  O   UNL d   1       7.001  -0.023 -16.479  0.00  0.00    -0.328 OA
ATOM     30  C   UNL d   1       6.146  -0.123 -15.344  0.00  0.00     0.181 C 
ENDBRANCH   1  29
TORSDOF 4
