REMARK  8 active torsions:
REMARK  status: ('A' for Active; 'I' for Inactive)
REMARK       I    between atoms: C_2  and  N_3 
REMARK    1  A    between atoms: C_2  and  C_23 
REMARK    2  A    between atoms: N_3  and  C_4 
REMARK    3  A    between atoms: C_4  and  C_5 
REMARK    4  A    between atoms: C_5  and  C_6 
REMARK    5  A    between atoms: C_6  and  C_7 
REMARK    6  A    between atoms: C_7  and  C_8 
REMARK    7  A    between atoms: C_8  and  N_9 
REMARK    8  A    between atoms: N_12  and  C_13 
ROOT
ATOM      1  C   UNL d   1       5.843   0.036 -14.210  0.00  0.00     0.129 C 
ENDROOT
BRANCH   1   2
ATOM      2  N   UNL d   1       5.883   0.341 -15.632  0.00  0.00    -0.234 NA
ATOM      3  C   UNL d   1       5.471  -0.437 -16.616  0.00  0.00     0.275 C 
ATOM      4  O   UNL d   1       4.779  -1.453 -16.444  0.00  0.00    -0.266 OA
BRANCH   3   5
ATOM      5  C   UNL d   1       5.812   0.038 -17.998  0.00  0.00     0.058 A 
ATOM      6  C   UNL d   1       7.130   0.447 -18.385  0.00  0.00     0.008 A 
ATOM      7  C   UNL d   1       7.361   0.783 -19.734  0.00  0.00     0.039 A 
ATOM      8  C   UNL d   1       8.425   0.595 -17.675  0.00  0.00     0.003 A 
ATOM      9  C   UNL d   1       6.347   0.768 -20.711  0.00  0.00     0.003 A 
ATOM     10  C   UNL d   1       8.781   1.131 -19.949  0.00  0.00     0.196 A 
ATOM     11  C   UNL d   1       5.051   0.382 -20.321  0.00  0.00     0.000 A 
ATOM     12  C   UNL d   1       4.798   0.007 -18.985  0.00  0.00     0.005 A 
ATOM     13  C   UNL d   1       9.396   1.008 -18.609  0.00  0.00     0.039 A 
ATOM     14  O   UNL d   1       9.326   1.447 -21.009  0.00  0.00    -0.287 OA
ATOM     15  C   UNL d   1      10.744   1.250 -18.257  0.00  0.00     0.003 A 
ATOM     16  C   UNL d   1      11.119   1.107 -16.900  0.00  0.00     0.000 A 
ATOM     17  C   UNL d   1      10.154   0.708 -15.947  0.00  0.00     0.000 A 
ATOM     18  C   UNL d   1       8.826   0.423 -16.325  0.00  0.00     0.000 A 
ENDBRANCH   3   5
ENDBRANCH   1   2
BRANCH   1  19
ATOM     19  C   UNL d   1       5.811   1.327 -13.382  0.00  0.00     0.026 C 
BRANCH  19  20
ATOM     20  C   UNL d   1       6.929   2.341 -13.728  0.00  0.00     0.004 C 
BRANCH  20  21
ATOM     21  C   UNL d   1       6.915   3.579 -12.817  0.00  0.00     0.035 C 
BRANCH  21  22
ATOM     22  C   UNL d   1       8.275   4.290 -12.815  0.00  0.00     0.250 C 
BRANCH  22  23
ATOM     23  N   UNL d   1       8.287   5.375 -11.841  0.00  0.00     0.141 N 
ATOM     24  C   UNL d   1       8.665   4.854 -10.515  0.00  0.00     0.274 C 
ATOM     25  C   UNL d   1       8.697   5.975  -9.467  0.00  0.00     0.137 C 
ATOM     26  N   UNL d   1       9.578   7.035  -9.919  0.00  0.00    -0.344 N 
ATOM     27  C   UNL d   1       9.306   7.554 -11.255  0.00  0.00     0.137 C 
ATOM     28  C   UNL d   1       9.260   6.391 -12.256  0.00  0.00     0.274 C 
BRANCH  26  29
ATOM     29  C   UNL d   1      10.511   7.660  -9.072  0.00  0.00     0.068 A 
ATOM     30  C   UNL d   1      10.257   8.054  -7.729  0.00  0.00     0.084 A 
ATOM     31  C   UNL d   1      11.301   8.632  -6.974  0.00  0.00     0.070 A 
ATOM     32 CL   UNL d   1       8.721   7.881  -6.957  0.00  0.00    -0.080 Cl
ATOM     33  C   UNL d   1      12.572   8.780  -7.538  0.00  0.00     0.012 A 
ATOM     34 CL   UNL d   1      11.072   9.143  -5.342  0.00  0.00    -0.081 Cl
ATOM     35  C   UNL d   1      12.834   8.392  -8.842  0.00  0.00     0.002 A 
ATOM     36  C   UNL d   1      11.794   7.860  -9.606  0.00  0.00     0.018 A 
ENDBRANCH  26  29
ENDBRANCH  22  23
ENDBRANCH  21  22
ENDBRANCH  20  21
ENDBRANCH  19  20
ENDBRANCH   1  19
TORSDOF 8
