REMARK  1 active torsions:
REMARK  status: ('A' for Active; 'I' for Inactive)
REMARK    1  A    between atoms: O_2  and  C_3 
ROOT
ATOM      1  C   UNL d   1       5.659  -0.157 -14.800  0.00  0.00     0.094 A 
ATOM      2  C   UNL d   1       5.246   0.919 -13.981  0.00  0.00     0.024 A 
ATOM      3  C   UNL d   1       6.054   2.061 -13.844  0.00  0.00    -0.000 A 
ATOM      4  C   UNL d   1       7.326   2.140 -14.468  0.00  0.00     0.009 A 
ATOM      5  C   UNL d   1       7.739   1.058 -15.275  0.00  0.00    -0.020 A 
ATOM      6  C   UNL d   1       6.900  -0.053 -15.452  0.00  0.00     0.020 A 
ATOM      7  C   UNL d   1       9.109   1.057 -15.928  0.00  0.00     0.061 C 
ATOM      8  C   UNL d   1       9.776   2.447 -15.967  0.00  0.00     0.256 C 
ATOM      9  N   UNL d   1       9.625   3.170 -14.708  0.00  0.00     0.144 N 
ATOM     10  C   UNL d   1      10.182   2.440 -13.584  0.00  0.00     0.256 C 
ATOM     11  C   UNL d   1      10.218   3.389 -12.375  0.00  0.00     0.061 C 
ATOM     12  C   UNL d   1       8.998   4.220 -12.171  0.00  0.00    -0.022 A 
ATOM     13  C   UNL d   1       8.863   4.898 -10.962  0.00  0.00    -0.004 A 
ATOM     14  C   UNL d   1       7.724   5.684 -10.773  0.00  0.00    -0.000 A 
ATOM     15  C   UNL d   1       6.754   5.794 -11.781  0.00  0.00    -0.000 A 
ATOM     16  C   UNL d   1       6.871   5.056 -12.967  0.00  0.00    -0.002 A 
ATOM     17  C   UNL d   1       8.004   4.246 -13.166  0.00  0.00     0.009 A 
ATOM     18  C   UNL d   1       8.207   3.405 -14.419  0.00  0.00     0.263 C 
ENDROOT
BRANCH   1  19
ATOM     19  O   UNL d   1       4.896  -1.281 -15.026  0.00  0.00    -0.328 OA
ATOM     20  C   UNL d   1       3.506  -1.223 -14.725  0.00  0.00     0.181 C 
ENDBRANCH   1  19
TORSDOF 1
