REMARK  7 active torsions:
REMARK  status: ('A' for Active; 'I' for Inactive)
REMARK    1  A    between atoms: C_6  and  N_7 
REMARK    2  A    between atoms: N_12  and  C_13 
REMARK    3  A    between atoms: C_13  and  C_14 
REMARK    4  A    between atoms: C_14  and  C_15 
REMARK    5  A    between atoms: C_15  and  S_16 
REMARK    6  A    between atoms: S_16  and  C_17 
REMARK    7  A    between atoms: C_20  and  C_21 
ROOT
ATOM      1  C   UNL d   1      10.815   5.445 -18.875  0.00  0.00     0.251 C 
ENDROOT
BRANCH   1   2
ATOM      2  N   UNL d   1      10.505   5.373 -17.453  0.00  0.00     0.138 N 
ATOM      3  C   UNL d   1      11.690   5.208 -16.610  0.00  0.00     0.252 C 
ATOM      4  C   UNL d   1      11.112   4.745 -15.269  0.00  0.00     0.052 C 
ATOM      5  C   UNL d   1      11.859   3.625 -14.537  0.00  0.00     0.021 C 
ATOM      6  C   UNL d   1       9.765   4.145 -15.634  0.00  0.00     0.097 C 
ATOM      7  C   UNL d   1      10.724   2.726 -14.041  0.00  0.00     0.077 C 
ATOM      8  N   UNL d   1       9.718   2.791 -15.090  0.00  0.00    -0.252 NA
ATOM      9  C   UNL d   1       9.709   4.191 -17.157  0.00  0.00     0.266 C 
BRANCH   8  10
ATOM     10  C   UNL d   1       8.467   2.278 -14.723  0.00  0.00     0.036 A 
ATOM     11  C   UNL d   1       8.159   0.937 -15.039  0.00  0.00     0.011 A 
ATOM     12  C   UNL d   1       6.909   0.392 -14.694  0.00  0.00     0.001 A 
ATOM     13  C   UNL d   1       5.956   1.184 -14.024  0.00  0.00    -0.004 A 
ATOM     14  C   UNL d   1       6.258   2.521 -13.692  0.00  0.00    -0.021 A 
ATOM     15  C   UNL d   1       5.244   3.381 -12.966  0.00  0.00     0.031 C 
ATOM     16  C   UNL d   1       7.510   3.060 -14.035  0.00  0.00     0.007 A 
ENDBRANCH   8  10
ENDBRANCH   1   2
BRANCH   1  17
ATOM     17  C   UNL d   1      11.527   6.758 -19.223  0.00  0.00     0.047 C 
BRANCH  17  18
ATOM     18  C   UNL d   1      11.827   6.871 -20.727  0.00  0.00     0.067 C 
BRANCH  18  19
ATOM     19  S   UNL d   1      12.754   8.386 -21.116  0.00  0.00    -0.075 SA
BRANCH  19  20
ATOM     20  C   UNL d   1      14.285   8.009 -20.314  0.00  0.00     0.193 A 
ATOM     21  N   UNL d   1      15.153   8.956 -19.896  0.00  0.00    -0.287 N 
ATOM     22  C   UNL d   1      16.158   8.207 -19.366  0.00  0.00     0.186 A 
ATOM     23  C   UNL d   1      15.024  10.406 -19.995  0.00  0.00     0.134 C 
ATOM     24  N   UNL d   1      15.893   6.896 -19.419  0.00  0.00    -0.127 NA
ATOM     25  N   UNL d   1      14.699   6.767 -20.064  0.00  0.00    -0.122 NA
BRANCH  22  26
ATOM     26  C   UNL d   1      17.420   8.680 -18.781  0.00  0.00     0.136 A 
ATOM     27  N   UNL d   1      17.746   9.988 -18.897  0.00  0.00    -0.238 NA
ATOM     28  C   UNL d   1      18.912  10.387 -18.349  0.00  0.00     0.120 A 
ATOM     29  C   UNL d   1      19.753   9.489 -17.665  0.00  0.00     0.120 A 
ATOM     30  N   UNL d   1      19.437   8.182 -17.531  0.00  0.00    -0.239 NA
ATOM     31  C   UNL d   1      18.276   7.782 -18.095  0.00  0.00     0.121 A 
ENDBRANCH  22  26
ENDBRANCH  19  20
ENDBRANCH  18  19
ENDBRANCH  17  18
ENDBRANCH   1  17
TORSDOF 7
