REMARK  6 active torsions:
REMARK  status: ('A' for Active; 'I' for Inactive)
REMARK    1  A    between atoms: C_2  and  C_3 
REMARK    2  A    between atoms: C_3  and  C_4 
REMARK    3  A    between atoms: C_4  and  C_5 
REMARK    4  A    between atoms: C_5  and  C_6 
REMARK    5  A    between atoms: C_6  and  N_7 
REMARK       I    between atoms: N_7  and  C_8 
REMARK       I    between atoms: C_8  and  N_10 
REMARK       I    between atoms: C_11  and  N_13 
REMARK    6  A    between atoms: N_13  and  C_14 
ROOT
ATOM      1  N   UNL d   1       9.588   6.552 -10.604  0.00  0.00    -0.217 NA
ATOM      2  C   UNL d   1       9.126   6.581 -11.848  0.00  0.00     0.367 C 
ATOM      3  O   UNL d   1       8.841   7.641 -12.435  0.00  0.00    -0.243 OA
ATOM      4  N   UNL d   1       9.129   5.323 -12.405  0.00  0.00    -0.159 NA
ATOM      5  C   UNL d   1       8.016   4.840 -12.852  0.00  0.00     0.237 C 
ATOM      6  N   UNL d   1       6.741   5.371 -12.671  0.00  0.00    -0.060 NA
ATOM      7  N   UNL d   1       7.977   3.675 -13.607  0.00  0.00    -0.242 NA
ENDROOT
BRANCH   7   8
ATOM      8  C   UNL d   1       9.102   2.777 -13.859  0.00  0.00     0.111 C 
ATOM      9  C   UNL d   1       8.599   1.430 -14.454  0.00  0.00     0.059 C 
ATOM     10  C   UNL d   1       8.370   1.520 -15.929  0.00  0.00     0.026 A 
ATOM     11  C   UNL d   1       8.872   2.507 -16.729  0.00  0.00     0.063 A 
ATOM     12  S   UNL d   1       7.412   0.386 -16.842  0.00  0.00    -0.050 SA
ATOM     13  C   UNL d   1       9.694   3.657 -16.232  0.00  0.00     0.048 C 
ATOM     14  N   UNL d   1       8.513   2.402 -18.070  0.00  0.00    -0.224 NA
ATOM     15  C   UNL d   1      10.176   3.434 -14.785  0.00  0.00     0.031 C 
ATOM     16  C   UNL d   1       7.759   1.324 -18.292  0.00  0.00     0.214 A 
ATOM     17  N   UNL d   1       7.252   0.998 -19.533  0.00  0.00    -0.120 N 
ENDBRANCH   7   8
BRANCH   1  18
ATOM     18  C   UNL d   1      10.025   7.700  -9.809  0.00  0.00     0.131 C 
BRANCH  18  19
ATOM     19  C   UNL d   1       9.674   7.523  -8.324  0.00  0.00     0.026 C 
BRANCH  19  20
ATOM     20  C   UNL d   1      10.714   8.130  -7.370  0.00  0.00     0.002 C 
BRANCH  20  21
ATOM     21  C   UNL d   1      10.234   8.129  -5.913  0.00  0.00     0.000 C 
BRANCH  21  22
ATOM     22  C   UNL d   1      11.377   8.255  -4.892  0.00  0.00     0.000 C 
ATOM     23  C   UNL d   1      11.863   6.886  -4.397  0.00  0.00     0.000 C 
ENDBRANCH  21  22
ENDBRANCH  20  21
ENDBRANCH  19  20
ENDBRANCH  18  19
ENDBRANCH   1  18
TORSDOF 6
