REMARK  5 active torsions:
REMARK  status: ('A' for Active; 'I' for Inactive)
REMARK    1  A    between atoms: C_2  and  C_4 
REMARK       I    between atoms: N_12  and  C_13 
REMARK    2  A    between atoms: C_13  and  C_15 
REMARK    3  A    between atoms: C_15  and  N_16 
REMARK    4  A    between atoms: N_19  and  C_20 
REMARK    5  A    between atoms: C_20  and  C_21 
ROOT
ATOM      1  C   UNL d   1       9.639   2.029 -16.097  0.00  0.00     0.337 C 
ENDROOT
BRANCH   1   2
ATOM      2  C   UNL d   1       8.723   1.339 -17.132  0.00  0.00     0.271 C 
ATOM      3  N   UNL d   1       9.272   0.717 -18.231  0.00  0.00    -0.299 N 
ATOM      4  C   UNL d   1       8.425  -0.100 -19.139  0.00  0.00     0.092 A 
ATOM      5  C   UNL d   1      10.633   0.693 -18.671  0.00  0.00     0.058 A 
ATOM      6  C   UNL d   1       9.398  -0.646 -20.241  0.00  0.00     0.051 A 
ATOM      7  C   UNL d   1      10.728  -0.092 -19.835  0.00  0.00    -0.004 A 
ATOM      8  C   UNL d   1      11.953  -0.299 -20.494  0.00  0.00    -0.003 A 
ATOM      9  C   UNL d   1      13.131   0.299 -19.983  0.00  0.00    -0.000 A 
ATOM     10  C   UNL d   1      13.030   1.112 -18.824  0.00  0.00     0.002 A 
ATOM     11  C   UNL d   1      11.814   1.317 -18.140  0.00  0.00     0.017 A 
ATOM     12  O   UNL d   1       7.507   1.388 -16.980  0.00  0.00    -0.270 OA
BRANCH   4  13
ATOM     13  C   UNL d   1       7.175   0.609 -19.758  0.00  0.00     0.021 C 
ATOM     14  C   UNL d   1       6.286  -0.346 -20.556  0.00  0.00     0.002 C 
ATOM     15  C   UNL d   1       7.542   1.892 -20.521  0.00  0.00     0.002 C 
ENDBRANCH   4  13
ENDBRANCH   1   2
BRANCH   1  16
ATOM     16  N   UNL d   1       8.997   3.024 -15.212  0.00  0.00     0.151 N 
ATOM     17  C   UNL d   1       7.934   2.526 -14.349  0.00  0.00     0.286 C 
ATOM     18  C   UNL d   1       7.330   3.667 -13.532  0.00  0.00     0.286 C 
ATOM     19  N   UNL d   1       8.328   4.299 -12.679  0.00  0.00     0.146 N 
ATOM     20  C   UNL d   1       9.417   4.794 -13.527  0.00  0.00     0.286 C 
ATOM     21  C   UNL d   1      10.021   3.668 -14.383  0.00  0.00     0.286 C 
BRANCH  19  22
ATOM     22  C   UNL d   1       7.727   5.344 -11.869  0.00  0.00     0.277 C 
BRANCH  22  23
ATOM     23  C   UNL d   1       8.665   5.855 -10.803  0.00  0.00     0.011 A 
ATOM     24  C   UNL d   1       8.708   5.222  -9.543  0.00  0.00    -0.002 A 
ATOM     25  C   UNL d   1       9.543   5.725  -8.536  0.00  0.00     0.011 A 
ATOM     26  C   UNL d   1      10.343   6.863  -8.776  0.00  0.00     0.058 A 
ATOM     27  C   UNL d   1      10.311   7.486 -10.037  0.00  0.00     0.011 A 
ATOM     28 CL   UNL d   1      11.380   7.471  -7.537  0.00  0.00    -0.082 Cl
ATOM     29  C   UNL d   1       9.486   6.986 -11.047  0.00  0.00    -0.002 A 
ENDBRANCH  22  23
ENDBRANCH  19  22
ENDBRANCH   1  16
TORSDOF 5
