REMARK  4 active torsions:
REMARK  status: ('A' for Active; 'I' for Inactive)
REMARK    1  A    between atoms: N_3  and  C_4 
REMARK    2  A    between atoms: C_4  and  C_5 
REMARK    3  A    between atoms: C_5  and  N_6 
REMARK    4  A    between atoms: N_17  and  C_18 
ROOT
ATOM      1  O   UNL d   1      10.242   5.186 -13.454  0.00  0.00    -0.247 OA
ATOM      2  C   UNL d   1       9.062   5.076 -13.072  0.00  0.00     0.328 A 
ATOM      3  N   UNL d   1       8.453   5.978 -12.327  0.00  0.00    -0.298 N 
ATOM      4  C   UNL d   1       7.064   5.648 -12.036  0.00  0.00     0.131 A 
ATOM      5  C   UNL d   1       6.884   4.332 -12.796  0.00  0.00     0.135 A 
ATOM      6  N   UNL d   1       8.205   4.080 -13.353  0.00  0.00    -0.280 N 
ENDROOT
BRANCH   3   7
ATOM      7  C   UNL d   1       9.110   7.206 -11.869  0.00  0.00     0.130 C 
BRANCH   7   8
ATOM      8  C   UNL d   1       9.831   6.865 -10.565  0.00  0.00     0.122 C 
BRANCH   8   9
ATOM      9  N   UNL d   1      10.480   8.055 -10.013  0.00  0.00    -0.367 N 
ATOM     10  C   UNL d   1      11.766   7.843  -9.363  0.00  0.00     0.097 C 
ATOM     11  C   UNL d   1      11.690   7.460  -7.856  0.00  0.00     0.022 C 
ATOM     12  C   UNL d   1      11.694   8.710  -6.949  0.00  0.00     0.002 C 
ATOM     13  C   UNL d   1      10.521   6.499  -7.466  0.00  0.00     0.002 C 
ATOM     14  C   UNL d   1      10.287   9.311  -6.808  0.00  0.00     0.002 C 
ATOM     15  C   UNL d   1       9.269   8.687  -7.802  0.00  0.00     0.022 C 
ATOM     16  C   UNL d   1       9.624   9.002  -9.291  0.00  0.00     0.097 C 
ATOM     17  C   UNL d   1       9.108   7.186  -7.428  0.00  0.00     0.002 C 
ENDBRANCH   8   9
ENDBRANCH   7   8
ENDBRANCH   3   7
BRANCH   6  18
ATOM     18  C   UNL d   1       8.494   2.920 -14.153  0.00  0.00     0.065 A 
ATOM     19  C   UNL d   1       7.516   2.338 -14.974  0.00  0.00     0.029 A 
ATOM     20  C   UNL d   1       7.819   1.213 -15.772  0.00  0.00     0.059 A 
ATOM     21  C   UNL d   1       9.125   0.644 -15.728  0.00  0.00     0.011 A 
ATOM     22 CL   UNL d   1       6.636   0.539 -16.839  0.00  0.00    -0.082 Cl
ATOM     23  C   UNL d   1      10.097   1.215 -14.883  0.00  0.00     0.002 A 
ATOM     24  C   UNL d   1       9.781   2.329 -14.107  0.00  0.00     0.017 A 
ENDBRANCH   6  18
TORSDOF 4
