REMARK  6 active torsions:
REMARK  status: ('A' for Active; 'I' for Inactive)
REMARK    1  A    between atoms: C_6  and  C_7 
REMARK    2  A    between atoms: C_10  and  S_11 
REMARK    3  A    between atoms: S_11  and  C_12 
REMARK    4  A    between atoms: C_12  and  C_13 
REMARK    5  A    between atoms: C_13  and  C_14 
REMARK    6  A    between atoms: C_14  and  N_15 
ROOT
ATOM      1  S   UNL d   1       4.611  -4.265 -20.208  0.00  0.00    -0.075 SA
ENDROOT
BRANCH   1   2
ATOM      2  C   UNL d   1       4.404  -2.837 -19.177  0.00  0.00     0.193 A 
ATOM      3  N   UNL d   1       3.839  -1.714 -19.605  0.00  0.00    -0.122 NA
ATOM      4  N   UNL d   1       3.898  -0.842 -18.546  0.00  0.00    -0.128 NA
ATOM      5  C   UNL d   1       4.449  -1.519 -17.537  0.00  0.00     0.167 A 
ATOM      6  N   UNL d   1       4.821  -2.762 -17.895  0.00  0.00    -0.289 N 
ATOM      7  C   UNL d   1       5.491  -3.774 -17.106  0.00  0.00     0.134 C 
BRANCH   5   8
ATOM      8  C   UNL d   1       4.659  -0.914 -16.201  0.00  0.00     0.037 A 
ATOM      9  C   UNL d   1       5.815  -0.203 -15.854  0.00  0.00     0.021 A 
ATOM     10  C   UNL d   1       6.912  -0.097 -16.730  0.00  0.00     0.003 A 
ATOM     11  C   UNL d   1       5.944   0.410 -14.559  0.00  0.00     0.081 A 
ATOM     12  C   UNL d   1       8.088   0.558 -16.334  0.00  0.00     0.015 A 
ATOM     13  C   UNL d   1       8.093   1.156 -15.069  0.00  0.00     0.059 A 
ATOM     14  C   UNL d   1       9.285   1.966 -14.603  0.00  0.00     0.052 C 
ATOM     15  N   UNL d   1       7.035   1.095 -14.219  0.00  0.00    -0.250 NA
ATOM     16  C   UNL d   1       4.880   0.244 -13.625  0.00  0.00     0.019 A 
ATOM     17  C   UNL d   1       3.721  -0.474 -13.986  0.00  0.00     0.002 A 
ATOM     18  C   UNL d   1       3.590  -1.059 -15.280  0.00  0.00     0.003 A 
ENDBRANCH   5   8
ENDBRANCH   1   2
BRANCH   1  19
ATOM     19  C   UNL d   1       6.331  -4.010 -20.771  0.00  0.00     0.067 C 
BRANCH  19  20
ATOM     20  C   UNL d   1       6.636  -2.561 -21.221  0.00  0.00     0.047 C 
BRANCH  20  21
ATOM     21  C   UNL d   1       8.151  -2.227 -21.203  0.00  0.00     0.251 C 
BRANCH  21  22
ATOM     22  N   UNL d   1       8.419  -0.786 -21.004  0.00  0.00     0.138 N 
ATOM     23  C   UNL d   1       9.801  -0.516 -21.406  0.00  0.00     0.255 C 
ATOM     24  C   UNL d   1      10.093   0.996 -21.559  0.00  0.00     0.061 C 
ATOM     25  C   UNL d   1      10.396   1.725 -20.253  0.00  0.00    -0.024 A 
ATOM     26  C   UNL d   1       9.415   1.832 -19.236  0.00  0.00    -0.022 A 
ATOM     27  C   UNL d   1      11.690   2.312 -20.082  0.00  0.00     0.004 A 
ATOM     28  C   UNL d   1       8.053   1.170 -19.416  0.00  0.00     0.061 C 
ATOM     29  C   UNL d   1       9.700   2.533 -18.055  0.00  0.00     0.015 A 
ATOM     30  C   UNL d   1       8.178  -0.357 -19.631  0.00  0.00     0.255 C 
ATOM     31  C   UNL d   1      10.998   3.103 -17.840  0.00  0.00     0.087 A 
ATOM     32  C   UNL d   1      11.975   2.982 -18.892  0.00  0.00     0.048 A 
ATOM     33  N   UNL d   1      11.431   3.789 -16.714  0.00  0.00    -0.243 NA
ATOM     34  S   UNL d   1      13.480   3.781 -18.383  0.00  0.00    -0.071 SA
ATOM     35  C   UNL d   1      12.707   4.180 -16.850  0.00  0.00     0.089 A 
ATOM     36  C   UNL d   1      13.414   4.931 -15.773  0.00  0.00     0.059 C 
ENDBRANCH  21  22
ENDBRANCH  20  21
ENDBRANCH  19  20
ENDBRANCH   1  19
TORSDOF 6
