REMARK  9 active torsions:
REMARK  status: ('A' for Active; 'I' for Inactive)
REMARK    1  A    between atoms: C_2  and  C_3 
REMARK    2  A    between atoms: C_7  and  O_8 
REMARK    3  A    between atoms: C_10  and  N_11 
REMARK    4  A    between atoms: N_14  and  C_15 
REMARK    5  A    between atoms: C_15  and  C_16 
REMARK    6  A    between atoms: C_16  and  C_17 
REMARK    7  A    between atoms: C_17  and  C_18 
REMARK    8  A    between atoms: C_18  and  N_19 
REMARK       I    between atoms: N_19  and  C_20 
REMARK    9  A    between atoms: C_20  and  C_22 
ROOT
ATOM      1  N   UNL d   1       7.753   2.136 -14.688  0.00  0.00    -0.343 N 
ATOM      2  C   UNL d   1       7.029   3.131 -13.937  0.00  0.00     0.137 C 
ATOM      3  C   UNL d   1       7.884   4.399 -13.844  0.00  0.00     0.274 C 
ATOM      4  N   UNL d   1       9.211   4.103 -13.275  0.00  0.00     0.141 N 
ATOM      5  C   UNL d   1       9.909   3.143 -14.160  0.00  0.00     0.274 C 
ATOM      6  C   UNL d   1       9.104   1.839 -14.274  0.00  0.00     0.137 C 
ENDROOT
BRANCH   4   7
ATOM      7  C   UNL d   1      10.019   5.308 -13.200  0.00  0.00     0.251 C 
BRANCH   7   8
ATOM      8  C   UNL d   1       9.459   6.406 -12.251  0.00  0.00     0.037 C 
BRANCH   8   9
ATOM      9  C   UNL d   1      10.016   6.250 -10.836  0.00  0.00     0.029 C 
BRANCH   9  10
ATOM     10  C   UNL d   1       9.301   7.134  -9.839  0.00  0.00     0.129 C 
BRANCH  10  11
ATOM     11  N   UNL d   1      10.043   7.245  -8.596  0.00  0.00    -0.233 NA
ATOM     12  C   UNL d   1      10.714   8.345  -8.221  0.00  0.00     0.293 C 
ATOM     13  O   UNL d   1      10.942   9.291  -8.970  0.00  0.00    -0.264 OA
BRANCH  12  14
ATOM     14  C   UNL d   1      11.053   8.417  -6.789  0.00  0.00     0.139 A 
ATOM     15  N   UNL d   1      11.226   7.246  -6.069  0.00  0.00    -0.241 NA
ATOM     16  C   UNL d   1      11.551   7.526  -4.762  0.00  0.00     0.082 A 
ATOM     17  C   UNL d   1      11.559   8.945  -4.652  0.00  0.00     0.019 A 
ATOM     18  C   UNL d   1      11.857   6.694  -3.685  0.00  0.00     0.019 A 
ATOM     19  C   UNL d   1      11.242   9.485  -5.942  0.00  0.00     0.025 A 
ATOM     20  C   UNL d   1      11.863   9.484  -3.373  0.00  0.00     0.002 A 
ATOM     21  C   UNL d   1      12.190   8.649  -2.289  0.00  0.00     0.000 A 
ATOM     22  C   UNL d   1      12.183   7.250  -2.440  0.00  0.00     0.002 A 
ENDBRANCH  12  14
ENDBRANCH  10  11
ENDBRANCH   9  10
ENDBRANCH   8   9
ENDBRANCH   7   8
ENDBRANCH   4   7
BRANCH   1  23
ATOM     23  C   UNL d   1       7.129   1.395 -15.711  0.00  0.00     0.079 A 
ATOM     24  C   UNL d   1       6.036   0.539 -15.444  0.00  0.00     0.120 A 
ATOM     25  C   UNL d   1       5.440  -0.158 -16.515  0.00  0.00     0.081 A 
ATOM     26  C   UNL d   1       5.928  -0.008 -17.824  0.00  0.00     0.009 A 
ATOM     27 CL   UNL d   1       4.104  -1.219 -16.226  0.00  0.00    -0.080 Cl
ATOM     28  C   UNL d   1       7.009   0.864 -18.095  0.00  0.00    -0.020 A 
ATOM     29  C   UNL d   1       7.615   1.549 -17.021  0.00  0.00     0.015 A 
BRANCH  24  30
ATOM     30  O   UNL d   1       5.520   0.388 -14.181  0.00  0.00    -0.326 OA
ATOM     31  C   UNL d   1       6.336  -0.389 -13.323  0.00  0.00     0.181 C 
ENDBRANCH  24  30
BRANCH  28  32
ATOM     32  C   UNL d   1       7.528   1.043 -19.515  0.00  0.00     0.026 C 
ATOM     33  C   UNL d   1       6.423   1.147 -20.576  0.00  0.00     0.005 C 
ENDBRANCH  28  32
ENDBRANCH   1  23
TORSDOF 9
