REMARK  4 active torsions:
REMARK  status: ('A' for Active; 'I' for Inactive)
REMARK    1  A    between atoms: C_8  and  C_9 
REMARK    2  A    between atoms: C_9  and  C_10 
REMARK    3  A    between atoms: C_10  and  N_11 
REMARK    4  A    between atoms: C_14  and  C_15 
ROOT
ATOM      1  N   UNL d   1       9.229   5.870  -9.234  0.00  0.00     0.137 N 
ATOM      2  C   UNL d   1      10.583   5.676  -8.794  0.00  0.00     0.251 C 
ATOM      3  C   UNL d   1      11.082   6.713  -7.788  0.00  0.00     0.040 C 
ATOM      4  C   UNL d   1      10.194   6.792  -6.580  0.00  0.00     0.026 C 
ATOM      5  C   UNL d   1       8.718   6.857  -7.041  0.00  0.00     0.040 C 
ATOM      6  C   UNL d   1       8.404   5.739  -8.051  0.00  0.00     0.251 C 
ENDROOT
BRANCH   1   7
ATOM      7  C   UNL d   1       8.897   4.821 -10.201  0.00  0.00     0.255 C 
BRANCH   7   8
ATOM      8  C   UNL d   1       8.139   5.465 -11.375  0.00  0.00     0.068 C 
BRANCH   8   9
ATOM      9  C   UNL d   1       7.970   4.505 -12.561  0.00  0.00     0.050 A 
ATOM     10  C   UNL d   1       6.774   3.981 -12.939  0.00  0.00     0.061 A 
ATOM     11  C   UNL d   1       5.468   4.326 -12.257  0.00  0.00     0.052 C 
ATOM     12  N   UNL d   1       6.673   3.078 -13.994  0.00  0.00    -0.237 NA
ATOM     13  C   UNL d   1       7.723   2.787 -14.693  0.00  0.00     0.122 A 
ATOM     14  C   UNL d   1       7.568   1.946 -15.970  0.00  0.00     0.064 C 
ATOM     15  N   UNL d   1       9.006   3.310 -14.386  0.00  0.00    -0.285 N 
ATOM     16  C   UNL d   1       8.852   1.328 -16.512  0.00  0.00     0.010 C 
ATOM     17  C   UNL d   1       9.928   2.397 -16.599  0.00  0.00     0.025 C 
ATOM     18  C   UNL d   1      10.201   2.951 -15.194  0.00  0.00     0.110 C 
ATOM     19  C   UNL d   1       9.180   4.161 -13.334  0.00  0.00     0.259 A 
ATOM     20  O   UNL d   1      10.285   4.628 -13.064  0.00  0.00    -0.267 OA
ENDBRANCH   8   9
ENDBRANCH   7   8
ENDBRANCH   1   7
BRANCH   4  21
ATOM     21  C   UNL d   1      10.688   7.911  -5.687  0.00  0.00    -0.022 A 
ATOM     22  C   UNL d   1      11.406   7.691  -4.463  0.00  0.00     0.003 A 
ATOM     23  C   UNL d   1      11.691   8.817  -3.635  0.00  0.00     0.029 A 
ATOM     24  C   UNL d   1      11.828   6.515  -3.797  0.00  0.00     0.007 A 
ATOM     25  C   UNL d   1      11.306  10.069  -4.034  0.00  0.00     0.006 A 
ATOM     26  S   UNL d   1      12.434   8.407  -2.113  0.00  0.00    -0.086 SA
ATOM     27  C   UNL d   1      10.692  10.254  -5.282  0.00  0.00     0.000 A 
ATOM     28  C   UNL d   1      10.396   9.196  -6.113  0.00  0.00    -0.004 A 
ATOM     29  C   UNL d   1      12.376   6.746  -2.566  0.00  0.00     0.035 A 
ENDBRANCH   4  21
TORSDOF 4
