REMARK  5 active torsions:
REMARK  status: ('A' for Active; 'I' for Inactive)
REMARK    1  A    between atoms: C_2  and  C_3 
REMARK    2  A    between atoms: C_3  and  C_4 
REMARK       I    between atoms: C_4  and  N_6 
REMARK    3  A    between atoms: N_6  and  C_7 
REMARK    4  A    between atoms: C_13  and  S_14 
REMARK    5  A    between atoms: S_14  and  C_17 
ROOT
ATOM      1  C   UNL d   1       8.605   1.865 -15.149  0.00  0.00     0.085 A 
ATOM      2  C   UNL d   1       7.342   1.227 -15.052  0.00  0.00     0.021 A 
ATOM      3  C   UNL d   1       6.320   1.789 -14.273  0.00  0.00     0.022 A 
ATOM      4  C   UNL d   1       6.555   3.000 -13.607  0.00  0.00     0.105 A 
ATOM      5  N   UNL d   1       5.781   3.780 -12.767  0.00  0.00    -0.147 NA
ATOM      6  N   UNL d   1       6.401   4.903 -12.336  0.00  0.00    -0.136 NA
ATOM      7  C   UNL d   1       7.616   4.815 -12.820  0.00  0.00     0.192 A 
ATOM      8  C   UNL d   1       7.811   3.666 -13.659  0.00  0.00     0.051 A 
ATOM      9  C   UNL d   1       8.832   3.069 -14.442  0.00  0.00     0.023 A 
ENDROOT
BRANCH   7  10
ATOM     10  S   UNL d   1       8.869   5.998 -12.432  0.00  0.00     0.228 S 
ATOM     11  O   UNL d   1      10.111   5.538 -13.080  0.00  0.00    -0.216 OA
ATOM     12  O   UNL d   1       8.282   7.295 -12.784  0.00  0.00    -0.216 OA
BRANCH  10  13
ATOM     13  C   UNL d   1       9.094   5.939 -10.647  0.00  0.00     0.089 A 
ATOM     14  C   UNL d   1       9.749   6.967  -9.908  0.00  0.00     0.011 A 
ATOM     15  C   UNL d   1       9.857   6.835  -8.499  0.00  0.00     0.001 A 
ATOM     16  C   UNL d   1      10.301   8.125 -10.507  0.00  0.00     0.001 A 
ATOM     17  C   UNL d   1       9.313   5.714  -7.862  0.00  0.00     0.000 A 
ATOM     18  C   UNL d   1      10.502   7.809  -7.717  0.00  0.00     0.000 A 
ATOM     19  C   UNL d   1       8.681   4.704  -8.592  0.00  0.00     0.001 A 
ATOM     20  C   UNL d   1       8.591   4.802  -9.981  0.00  0.00     0.011 A 
ATOM     21  C   UNL d   1      11.068   8.937  -8.328  0.00  0.00     0.000 A 
ATOM     22  C   UNL d   1      10.976   9.088  -9.726  0.00  0.00     0.000 A 
ENDBRANCH  10  13
ENDBRANCH   7  10
BRANCH   1  23
ATOM     23  N   UNL d   1       9.689   1.351 -15.915  0.00  0.00    -0.212 NA
ATOM     24  C   UNL d   1       9.654   0.436 -16.899  0.00  0.00     0.258 C 
ATOM     25  O   UNL d   1       8.634  -0.154 -17.263  0.00  0.00    -0.270 OA
BRANCH  24  26
ATOM     26  C   UNL d   1      10.990   0.154 -17.595  0.00  0.00     0.131 C 
BRANCH  26  27
ATOM     27  C   UNL d   1      10.965  -1.040 -18.574  0.00  0.00     0.348 C 
ATOM     28  N   UNL d   1      10.043  -0.812 -19.673  0.00  0.00     0.619 N 
ENDBRANCH  26  27
ENDBRANCH  24  26
ENDBRANCH   1  23
TORSDOF 5
