REMARK  5 active torsions:
REMARK  status: ('A' for Active; 'I' for Inactive)
REMARK    1  A    between atoms: O_2  and  C_3 
REMARK    2  A    between atoms: C_8  and  N_9 
REMARK    3  A    between atoms: N_9  and  S_10 
REMARK    4  A    between atoms: S_10  and  C_13 
REMARK    5  A    between atoms: C_16  and  C_17 
ROOT
ATOM      1  S   UNL d   1       8.671   6.214 -11.781  0.00  0.00     0.285 S 
ATOM      2  O   UNL d   1       9.241   7.089 -12.815  0.00  0.00    -0.198 OA
ATOM      3  O   UNL d   1       7.222   6.029 -11.639  0.00  0.00    -0.198 OA
ENDROOT
BRANCH   1   4
ATOM      4  N   UNL d   1       9.339   4.656 -12.065  0.00  0.00    -0.156 NA
BRANCH   4   5
ATOM      5  C   UNL d   1       9.218   3.869 -13.210  0.00  0.00     0.116 A 
ATOM      6  C   UNL d   1       7.958   3.424 -13.667  0.00  0.00     0.112 A 
ATOM      7  C   UNL d   1       7.902   2.582 -14.803  0.00  0.00     0.021 A 
ATOM      8  C   UNL d   1       9.074   2.172 -15.470  0.00  0.00    -0.022 A 
ATOM      9  C   UNL d   1       8.938   1.251 -16.685  0.00  0.00     0.061 C 
ATOM     10  C   UNL d   1      10.344   2.610 -14.983  0.00  0.00    -0.022 A 
ATOM     11  C   UNL d   1       9.670   1.722 -17.958  0.00  0.00     0.255 C 
ATOM     12  N   UNL d   1      11.114   1.497 -17.917  0.00  0.00     0.140 N 
ATOM     13  C   UNL d   1      11.797   2.482 -17.096  0.00  0.00     0.255 C 
ATOM     14  C   UNL d   1      11.647   1.619 -19.266  0.00  0.00     0.285 C 
ATOM     15  C   UNL d   1      11.664   2.177 -15.616  0.00  0.00     0.061 C 
ATOM     16  C   UNL d   1      10.385   3.461 -13.861  0.00  0.00     0.017 A 
BRANCH   6  17
ATOM     17  O   UNL d   1       6.875   3.768 -12.923  0.00  0.00    -0.327 OA
ATOM     18  C   UNL d   1       5.582   3.527 -13.418  0.00  0.00     0.181 C 
ENDBRANCH   6  17
ENDBRANCH   4   5
ENDBRANCH   1   4
BRANCH   1  19
ATOM     19  C   UNL d   1       9.365   6.640 -10.201  0.00  0.00     0.105 A 
ATOM     20  C   UNL d   1      10.242   7.732 -10.074  0.00  0.00     0.013 A 
ATOM     21  C   UNL d   1      10.733   8.080  -8.801  0.00  0.00     0.001 A 
ATOM     22  C   UNL d   1      10.355   7.346  -7.654  0.00  0.00     0.000 A 
ATOM     23  C   UNL d   1       9.465   6.257  -7.811  0.00  0.00     0.001 A 
ATOM     24  C   UNL d   1       8.971   5.897  -9.077  0.00  0.00     0.013 A 
BRANCH  22  25
ATOM     25  C   UNL d   1      10.880   7.709  -6.328  0.00  0.00     0.000 A 
ATOM     26  C   UNL d   1      10.939   9.054  -5.906  0.00  0.00     0.001 A 
ATOM     27  C   UNL d   1      11.446   9.387  -4.635  0.00  0.00     0.011 A 
ATOM     28  C   UNL d   1      11.908   8.380  -3.766  0.00  0.00     0.058 A 
ATOM     29  C   UNL d   1      11.859   7.037  -4.171  0.00  0.00     0.011 A 
ATOM     30 CL   UNL d   1      12.520   8.780  -2.207  0.00  0.00    -0.082 Cl
ATOM     31  C   UNL d   1      11.353   6.717  -5.444  0.00  0.00     0.001 A 
ENDBRANCH  22  25
ENDBRANCH   1  19
TORSDOF 5
