REMARK  8 active torsions:
REMARK  status: ('A' for Active; 'I' for Inactive)
REMARK    1  A    between atoms: C_6  and  C_7 
REMARK    2  A    between atoms: C_10  and  S_11 
REMARK    3  A    between atoms: S_11  and  C_12 
REMARK    4  A    between atoms: C_12  and  C_13 
REMARK    5  A    between atoms: C_13  and  C_14 
REMARK    6  A    between atoms: C_14  and  N_15 
REMARK    7  A    between atoms: C_19  and  C_20 
REMARK    8  A    between atoms: C_24  and  C_25 
ROOT
ATOM      1  N   UNL d   1      11.356   2.574 -17.677  0.00  0.00     0.137 N 
ATOM      2  C   UNL d   1      12.179   2.065 -16.580  0.00  0.00     0.251 C 
ATOM      3  C   UNL d   1      11.157   1.616 -15.571  0.00  0.00     0.039 A 
ATOM      4  C   UNL d   1      10.574   2.586 -14.566  0.00  0.00     0.008 A 
ATOM      5  C   UNL d   1       9.882   2.329 -15.890  0.00  0.00     0.052 A 
ATOM      6  C   UNL d   1      10.158   3.185 -17.103  0.00  0.00     0.254 C 
ENDROOT
BRANCH   1   7
ATOM      7  C   UNL d   1      12.083   3.444 -18.604  0.00  0.00     0.251 C 
BRANCH   7   8
ATOM      8  C   UNL d   1      12.629   4.714 -17.931  0.00  0.00     0.047 C 
BRANCH   8   9
ATOM      9  C   UNL d   1      13.076   5.776 -18.934  0.00  0.00     0.067 C 
BRANCH   9  10
ATOM     10  S   UNL d   1      13.436   7.335 -18.084  0.00  0.00    -0.075 SA
BRANCH  10  11
ATOM     11  C   UNL d   1      15.190   7.293 -18.163  0.00  0.00     0.193 A 
ATOM     12  N   UNL d   1      15.912   6.189 -17.970  0.00  0.00    -0.122 NA
ATOM     13  N   UNL d   1      17.213   6.569 -18.190  0.00  0.00    -0.126 NA
ATOM     14  C   UNL d   1      17.178   7.879 -18.463  0.00  0.00     0.191 A 
ATOM     15  N   UNL d   1      15.924   8.385 -18.451  0.00  0.00    -0.287 N 
ATOM     16  C   UNL d   1      15.471   9.757 -18.669  0.00  0.00     0.134 C 
BRANCH  14  17
ATOM     17  C   UNL d   1      18.402   8.628 -18.728  0.00  0.00     0.151 A 
ATOM     18  C   UNL d   1      19.704   8.230 -18.918  0.00  0.00     0.087 A 
ATOM     19  C   UNL d   1      20.301   6.856 -18.930  0.00  0.00     0.054 C 
ATOM     20  N   UNL d   1      20.480   9.363 -19.119  0.00  0.00    -0.221 NA
ATOM     21  C   UNL d   1      19.621  10.374 -19.047  0.00  0.00     0.225 A 
ATOM     22  O   UNL d   1      18.340   9.993 -18.812  0.00  0.00    -0.282 OA
ENDBRANCH  14  17
ENDBRANCH  10  11
ENDBRANCH   9  10
ENDBRANCH   8   9
ENDBRANCH   7   8
ENDBRANCH   1   7
BRANCH   5  23
ATOM     23  C   UNL d   1       8.605   1.530 -15.955  0.00  0.00    -0.021 A 
ATOM     24  C   UNL d   1       7.722   1.520 -14.858  0.00  0.00    -0.000 A 
ATOM     25  C   UNL d   1       6.538   0.753 -14.886  0.00  0.00     0.071 A 
ATOM     26  C   UNL d   1       6.236  -0.011 -16.031  0.00  0.00     0.004 A 
ATOM     27  C   UNL d   1       7.102   0.006 -17.140  0.00  0.00    -0.000 A 
ATOM     28  C   UNL d   1       8.285   0.768 -17.102  0.00  0.00    -0.004 A 
BRANCH  25  29
ATOM     29  C   UNL d   1       5.627   0.736 -13.667  0.00  0.00     0.419 C 
ATOM     30  F   UNL d   1       6.196  -0.005 -12.718  0.00  0.00    -0.166 F 
ATOM     31  F   UNL d   1       5.464   1.974 -13.198  0.00  0.00    -0.166 F 
ATOM     32  F   UNL d   1       4.425   0.224 -13.945  0.00  0.00    -0.166 F 
ENDBRANCH  25  29
ENDBRANCH   5  23
TORSDOF 8
