REMARK  8 active torsions:
REMARK  status: ('A' for Active; 'I' for Inactive)
REMARK    1  A    between atoms: C_2  and  C_3 
REMARK       I    between atoms: C_2  and  N_9 
REMARK    2  A    between atoms: N_9  and  C_10 
REMARK    3  A    between atoms: N_9  and  C_25 
REMARK    4  A    between atoms: C_10  and  C_11 
REMARK    5  A    between atoms: C_11  and  C_12 
REMARK    6  A    between atoms: C_12  and  N_13 
REMARK    7  A    between atoms: N_16  and  C_17 
REMARK    8  A    between atoms: C_25  and  C_26 
ROOT
ATOM      1  C   UNL d   1       8.481   6.853 -11.693  0.00  0.00     0.106 C 
ENDROOT
BRANCH   1   2
ATOM      2  N   UNL d   1       9.397   6.851 -10.534  0.00  0.00    -0.317 N 
ATOM      3  C   UNL d   1       9.927   8.023 -10.095  0.00  0.00     0.257 C 
ATOM      4  O   UNL d   1       9.977   9.003 -10.805  0.00  0.00    -0.267 OA
BRANCH   3   5
ATOM      5  C   UNL d   1      10.414   8.148  -8.681  0.00  0.00     0.056 C 
ATOM      6  C   UNL d   1       9.591   7.749  -7.628  0.00  0.00     0.005 C 
ATOM      7  C   UNL d   1      10.075   7.685  -6.305  0.00  0.00     0.000 C 
ATOM      8  C   UNL d   1      11.329   8.239  -6.008  0.00  0.00     0.000 C 
ATOM      9  C   UNL d   1      12.092   8.810  -7.048  0.00  0.00     0.000 C 
ATOM     10  C   UNL d   1      11.657   8.744  -8.390  0.00  0.00     0.005 C 
ENDBRANCH   3   5
BRANCH   2  11
ATOM     11  C   UNL d   1       9.590   5.556  -9.875  0.00  0.00     0.104 C 
BRANCH  11  12
ATOM     12  C   UNL d   1       8.404   5.062  -9.117  0.00  0.00     0.022 A 
ATOM     13  C   UNL d   1       8.508   3.762  -8.343  0.00  0.00     0.002 A 
ATOM     14  C   UNL d   1       8.365   5.072  -7.631  0.00  0.00     0.002 A 
ENDBRANCH  11  12
ENDBRANCH   2  11
ENDBRANCH   1   2
BRANCH   1  15
ATOM     15  C   UNL d   1       9.129   6.399 -12.993  0.00  0.00     0.060 C 
BRANCH  15  16
ATOM     16  C   UNL d   1       9.634   4.951 -12.991  0.00  0.00     0.252 C 
BRANCH  16  17
ATOM     17  N   UNL d   1      10.155   4.490 -14.262  0.00  0.00     0.141 N 
ATOM     18  C   UNL d   1       9.061   4.321 -15.206  0.00  0.00     0.274 C 
ATOM     19  C   UNL d   1       9.605   3.853 -16.556  0.00  0.00     0.138 C 
ATOM     20  N   UNL d   1      10.357   2.617 -16.381  0.00  0.00    -0.330 N 
ATOM     21  C   UNL d   1      11.391   2.664 -15.353  0.00  0.00     0.138 C 
ATOM     22  C   UNL d   1      10.786   3.185 -14.042  0.00  0.00     0.274 C 
BRANCH  20  23
ATOM     23  C   UNL d   1      10.078   1.467 -17.138  0.00  0.00     0.140 A 
ATOM     24  N   UNL d   1       8.862   1.389 -17.728  0.00  0.00    -0.227 NA
ATOM     25  C   UNL d   1       8.568   0.298 -18.464  0.00  0.00     0.101 A 
ATOM     26  C   UNL d   1       9.467  -0.767 -18.656  0.00  0.00     0.021 A 
ATOM     27  C   UNL d   1      10.732  -0.685 -18.050  0.00  0.00     0.005 A 
ATOM     28  C   UNL d   1      11.045   0.449 -17.282  0.00  0.00     0.037 A 
ENDBRANCH  20  23
ENDBRANCH  16  17
ENDBRANCH  15  16
ENDBRANCH   1  15
TORSDOF 8
