REMARK  3 active torsions:
REMARK  status: ('A' for Active; 'I' for Inactive)
REMARK    1  A    between atoms: C_2  and  C_3 
REMARK    2  A    between atoms: C_3  and  N_4 
REMARK    3  A    between atoms: C_6  and  C_7 
ROOT
ATOM      1  N   UNL d   1       8.552   3.082 -13.665  0.00  0.00     0.141 N 
ATOM      2  C   UNL d   1       7.357   3.392 -14.431  0.00  0.00     0.284 C 
ATOM      3  C   UNL d   1       7.095   2.385 -15.584  0.00  0.00     0.171 C 
ATOM      4  O   UNL d   1       8.265   2.296 -16.388  0.00  0.00    -0.346 OA
ATOM      5  C   UNL d   1       9.445   1.905 -15.684  0.00  0.00     0.169 C 
ATOM      6  C   UNL d   1      10.602   1.773 -16.658  0.00  0.00     0.005 A 
ATOM      7  C   UNL d   1      10.616   0.680 -17.547  0.00  0.00     0.025 A 
ATOM      8  C   UNL d   1      11.670   0.537 -18.467  0.00  0.00     0.131 A 
ATOM      9  O   UNL d   1      11.684  -0.511 -19.334  0.00  0.00    -0.190 OA
ATOM     10  C   UNL d   1      12.709   1.484 -18.506  0.00  0.00     0.027 A 
ATOM     11  C   UNL d   1      12.695   2.578 -17.627  0.00  0.00    -0.002 A 
ATOM     12  C   UNL d   1      11.649   2.723 -16.703  0.00  0.00    -0.024 A 
ATOM     13  C   UNL d   1      11.698   3.897 -15.756  0.00  0.00     0.028 C 
ATOM     14  C   UNL d   1      10.387   4.162 -15.046  0.00  0.00     0.041 C 
ATOM     15  C   UNL d   1       9.734   2.878 -14.510  0.00  0.00     0.251 C 
ENDROOT
BRANCH   3  16
ATOM     16  C   UNL d   1       6.572   1.017 -15.171  0.00  0.00     0.007 A 
ATOM     17  C   UNL d   1       5.574   0.365 -15.941  0.00  0.00    -0.002 A 
ATOM     18  C   UNL d   1       5.110  -0.905 -15.561  0.00  0.00    -0.000 A 
ATOM     19  C   UNL d   1       5.653  -1.509 -14.422  0.00  0.00    -0.000 A 
ATOM     20  C   UNL d   1       6.617  -0.867 -13.637  0.00  0.00    -0.000 A 
ATOM     21  C   UNL d   1       7.092   0.374 -14.033  0.00  0.00    -0.002 A 
ENDBRANCH   3  16
BRANCH   1  22
ATOM     22  C   UNL d   1       8.730   3.899 -12.469  0.00  0.00     0.250 C 
BRANCH  22  23
ATOM     23  C   UNL d   1       8.605   5.428 -12.682  0.00  0.00     0.035 C 
ATOM     24  C   UNL d   1       9.061   6.212 -11.455  0.00  0.00     0.002 C 
ENDBRANCH  22  23
ENDBRANCH   1  22
TORSDOF 3
