REMARK  1 active torsions:
REMARK  status: ('A' for Active; 'I' for Inactive)
REMARK    1  A    between atoms: O_2  and  C_3 
ROOT
ATOM      1  C   UNL d   1       5.276  -0.290 -13.993  0.00  0.00     0.094 C 
ATOM      2  C   UNL d   1       6.501  -0.777 -14.339  0.00  0.00     0.024 C 
ATOM      3  C   UNL d   1       7.616   0.065 -14.447  0.00  0.00    -0.000 C 
ATOM      4  C   UNL d   1       7.512   1.416 -14.071  0.00  0.00    -0.002 C 
ATOM      5  C   UNL d   1       6.265   1.877 -13.580  0.00  0.00    -0.022 C 
ATOM      6  C   UNL d   1       5.138   1.036 -13.552  0.00  0.00     0.020 C 
ATOM      7  C   UNL d   1       6.034   3.230 -12.973  0.00  0.00     0.028 C 
ATOM      8  C   UNL d   1       6.724   4.261 -13.807  0.00  0.00     0.029 C 
ATOM      9  C   UNL d   1       8.167   4.564 -13.472  0.00  0.00     0.098 C 
ATOM     10  N   UNL d   1       8.894   3.355 -13.206  0.00  0.00    -0.363 N 
ATOM     11  C   UNL d   1      10.181   3.673 -12.628  0.00  0.00     0.098 C 
ATOM     12  C   UNL d   1      11.285   4.083 -13.609  0.00  0.00     0.029 C 
ATOM     13  C   UNL d   1      11.664   2.986 -14.615  0.00  0.00     0.028 C 
ATOM     14  C   UNL d   1      10.657   2.859 -15.742  0.00  0.00    -0.024 A 
ATOM     15  C   UNL d   1      11.058   3.172 -17.051  0.00  0.00    -0.004 A 
ATOM     16  C   UNL d   1      10.139   3.096 -18.114  0.00  0.00    -0.000 A 
ATOM     17  C   UNL d   1       8.814   2.697 -17.875  0.00  0.00    -0.000 A 
ATOM     18  C   UNL d   1       8.411   2.393 -16.578  0.00  0.00    -0.003 A 
ATOM     19  C   UNL d   1       9.317   2.468 -15.507  0.00  0.00    -0.002 A 
ATOM     20  C   UNL d   1       8.825   2.199 -14.102  0.00  0.00     0.122 C 
ENDROOT
BRANCH   1  21
ATOM     21  O   UNL d   1       4.261  -1.182 -14.072  0.00  0.00    -0.328 OA
ATOM     22  C   UNL d   1       2.983  -0.634 -14.326  0.00  0.00     0.181 C 
ENDBRANCH   1  21
TORSDOF 1
