REMARK  8 active torsions:
REMARK  status: ('A' for Active; 'I' for Inactive)
REMARK    1  A    between atoms: C_2  and  C_5 
REMARK    2  A    between atoms: C_7  and  N_8 
REMARK    3  A    between atoms: N_11  and  C_12 
REMARK    4  A    between atoms: C_12  and  C_13 
REMARK    5  A    between atoms: C_13  and  C_14 
REMARK    6  A    between atoms: C_14  and  C_15 
REMARK    7  A    between atoms: C_15  and  N_16 
REMARK    8  A    between atoms: C_27  and  C_28 
ROOT
ATOM      1  N   UNL d   1       8.821   5.190 -12.969  0.00  0.00    -0.330 N 
ATOM      2  C   UNL d   1       7.923   4.506 -12.056  0.00  0.00     0.138 C 
ATOM      3  C   UNL d   1       8.511   4.542 -10.631  0.00  0.00     0.274 C 
ATOM      4  N   UNL d   1       8.722   5.919 -10.205  0.00  0.00     0.141 N 
ATOM      5  C   UNL d   1       9.698   6.532 -11.113  0.00  0.00     0.274 C 
ATOM      6  C   UNL d   1       9.159   6.537 -12.548  0.00  0.00     0.138 C 
ENDROOT
BRANCH   1   7
ATOM      7  C   UNL d   1       9.370   4.580 -14.119  0.00  0.00     0.143 C 
ATOM      8  N   UNL d   1      10.499   5.108 -14.651  0.00  0.00    -0.214 NA
ATOM      9  C   UNL d   1      10.934   4.633 -15.808  0.00  0.00     0.140 C 
ATOM     10  N   UNL d   1      10.436   3.545 -16.435  0.00  0.00    -0.227 NA
ATOM     11  C   UNL d   1       9.340   2.968 -15.889  0.00  0.00     0.157 C 
ATOM     12  C   UNL d   1       8.743   3.479 -14.735  0.00  0.00     0.060 C 
BRANCH   9  13
ATOM     13  C   UNL d   1      12.253   5.191 -16.376  0.00  0.00     0.052 C 
ATOM     14  C   UNL d   1      13.420   4.372 -15.827  0.00  0.00     0.008 C 
ATOM     15  C   UNL d   1      12.464   6.670 -15.977  0.00  0.00     0.008 C 
ATOM     16  C   UNL d   1      12.260   5.146 -17.923  0.00  0.00     0.008 C 
ENDBRANCH   9  13
BRANCH  11  17
ATOM     17  C   UNL d   1       8.754   1.757 -16.615  0.00  0.00     0.435 C 
ATOM     18  F   UNL d   1       8.337   2.125 -17.826  0.00  0.00    -0.165 F 
ATOM     19  F   UNL d   1       9.680   0.808 -16.732  0.00  0.00    -0.165 F 
ATOM     20  F   UNL d   1       7.711   1.235 -15.962  0.00  0.00    -0.165 F 
ENDBRANCH  11  17
ENDBRANCH   1   7
BRANCH   4  21
ATOM     21  C   UNL d   1       9.227   5.898  -8.839  0.00  0.00     0.251 C 
BRANCH  21  22
ATOM     22  C   UNL d   1       9.270   7.332  -8.259  0.00  0.00     0.037 C 
BRANCH  22  23
ATOM     23  C   UNL d   1      10.109   7.314  -7.013  0.00  0.00     0.027 C 
BRANCH  23  24
ATOM     24  C   UNL d   1      10.339   8.693  -6.393  0.00  0.00     0.109 C 
BRANCH  24  25
ATOM     25  N   UNL d   1      11.090   8.690  -5.111  0.00  0.00    -0.294 N 
ATOM     26  C   UNL d   1      11.154   9.862  -4.424  0.00  0.00     0.261 A 
ATOM     27  C   UNL d   1      11.813   9.849  -3.120  0.00  0.00     0.062 A 
ATOM     28  O   UNL d   1      10.646  10.883  -4.836  0.00  0.00    -0.267 OA
ATOM     29  C   UNL d   1      12.268   8.730  -2.574  0.00  0.00     0.018 A 
ATOM     30  C   UNL d   1      12.161   7.483  -3.314  0.00  0.00     0.075 A 
ATOM     31  C   UNL d   1      11.605   7.492  -4.540  0.00  0.00     0.090 A 
ATOM     32 CL   UNL d   1      12.696   6.013  -2.614  0.00  0.00    -0.081 Cl
ENDBRANCH  24  25
ENDBRANCH  23  24
ENDBRANCH  22  23
ENDBRANCH  21  22
ENDBRANCH   4  21
TORSDOF 8
