REMARK  8 active torsions:
REMARK  status: ('A' for Active; 'I' for Inactive)
REMARK    1  A    between atoms: C_2  and  C_5 
REMARK    2  A    between atoms: C_7  and  N_8 
REMARK    3  A    between atoms: N_11  and  C_12 
REMARK    4  A    between atoms: C_12  and  C_13 
REMARK    5  A    between atoms: C_13  and  C_14 
REMARK    6  A    between atoms: C_14  and  C_15 
REMARK    7  A    between atoms: C_15  and  N_16 
REMARK    8  A    between atoms: C_27  and  C_28 
ROOT
ATOM      1  N   UNL d   1       9.219   3.985 -14.767  0.00  0.00    -0.330 N 
ATOM      2  C   UNL d   1       9.412   3.118 -13.616  0.00  0.00     0.138 C 
ATOM      3  C   UNL d   1       9.825   3.962 -12.408  0.00  0.00     0.274 C 
ATOM      4  N   UNL d   1       8.820   4.992 -12.116  0.00  0.00     0.141 N 
ATOM      5  C   UNL d   1       8.761   5.892 -13.266  0.00  0.00     0.274 C 
ATOM      6  C   UNL d   1       8.320   5.106 -14.510  0.00  0.00     0.138 C 
ENDROOT
BRANCH   1   7
ATOM      7  C   UNL d   1       9.850   3.755 -16.004  0.00  0.00     0.143 A 
ATOM      8  N   UNL d   1       9.971   4.802 -16.848  0.00  0.00    -0.214 NA
ATOM      9  C   UNL d   1      10.572   4.605 -18.023  0.00  0.00     0.140 A 
ATOM     10  N   UNL d   1      11.120   3.450 -18.420  0.00  0.00    -0.227 NA
ATOM     11  C   UNL d   1      10.997   2.381 -17.609  0.00  0.00     0.157 A 
ATOM     12  C   UNL d   1      10.347   2.485 -16.361  0.00  0.00     0.060 A 
BRANCH   9  13
ATOM     13  C   UNL d   1      10.844   5.845 -18.888  0.00  0.00     0.052 C 
ATOM     14  C   UNL d   1       9.576   6.718 -19.001  0.00  0.00     0.008 C 
ATOM     15  C   UNL d   1      11.233   5.454 -20.334  0.00  0.00     0.008 C 
ATOM     16  C   UNL d   1      11.997   6.655 -18.264  0.00  0.00     0.008 C 
ENDBRANCH   9  13
BRANCH  11  17
ATOM     17  C   UNL d   1      11.575   1.066 -18.124  0.00  0.00     0.435 C 
ATOM     18  F   UNL d   1      11.434   0.085 -17.236  0.00  0.00    -0.165 F 
ATOM     19  F   UNL d   1      10.954   0.700 -19.247  0.00  0.00    -0.165 F 
ATOM     20  F   UNL d   1      12.872   1.216 -18.388  0.00  0.00    -0.165 F 
ENDBRANCH  11  17
ENDBRANCH   1   7
BRANCH   4  21
ATOM     21  C   UNL d   1       9.219   5.795 -10.963  0.00  0.00     0.251 C 
BRANCH  21  22
ATOM     22  C   UNL d   1       9.024   5.035  -9.636  0.00  0.00     0.037 C 
BRANCH  22  23
ATOM     23  C   UNL d   1       9.805   5.682  -8.491  0.00  0.00     0.027 C 
BRANCH  23  24
ATOM     24  C   UNL d   1       9.243   7.040  -8.054  0.00  0.00     0.109 C 
BRANCH  24  25
ATOM     25  N   UNL d   1      10.171   7.724  -7.147  0.00  0.00    -0.294 N 
ATOM     26  C   UNL d   1      10.935   8.775  -7.573  0.00  0.00     0.263 A 
ATOM     27  C   UNL d   1      11.791   9.386  -6.548  0.00  0.00     0.088 A 
ATOM     28  O   UNL d   1      10.921   9.186  -8.733  0.00  0.00    -0.267 OA
ATOM     29  C   UNL d   1      11.859   8.902  -5.292  0.00  0.00     0.137 A 
ATOM     30  C   UNL d   1      11.069   7.758  -4.919  0.00  0.00     0.046 A 
ATOM     31  O   UNL d   1      12.679   9.461  -4.399  0.00  0.00    -0.190 OA
ATOM     32  C   UNL d   1      10.255   7.217  -5.837  0.00  0.00     0.081 A 
ENDBRANCH  24  25
ENDBRANCH  23  24
ENDBRANCH  22  23
ENDBRANCH  21  22
ENDBRANCH   4  21
TORSDOF 8
