REMARK  2 active torsions:
REMARK  status: ('A' for Active; 'I' for Inactive)
REMARK    1  A    between atoms: S_2  and  C_5 
REMARK    2  A    between atoms: C_13  and  C_14 
ROOT
ATOM      1  C   UNL d   1       9.944   3.514 -15.460  0.00  0.00     0.118 A 
ATOM      2  C   UNL d   1       9.593   2.602 -16.489  0.00  0.00     0.028 A 
ATOM      3  C   UNL d   1       8.447   1.794 -16.338  0.00  0.00     0.123 A 
ATOM      4  C   UNL d   1       7.644   1.886 -15.175  0.00  0.00     0.091 A 
ATOM      5  C   UNL d   1       8.013   2.795 -14.170  0.00  0.00     0.032 A 
ATOM      6  C   UNL d   1       9.146   3.614 -14.294  0.00  0.00     0.071 A 
ATOM      7 CL   UNL d   1       9.482   4.716 -13.010  0.00  0.00    -0.082 Cl
ATOM      8  N   UNL d   1       6.500   1.108 -14.960  0.00  0.00    -0.244 NA
ATOM      9  C   UNL d   1       5.894   0.250 -15.980  0.00  0.00     0.248 C 
ATOM     10  N   UNL d   1       6.956  -0.405 -16.740  0.00  0.00    -0.159 NA
ATOM     11  S   UNL d   1       8.005   0.625 -17.618  0.00  0.00     0.284 S 
ATOM     12  O   UNL d   1       7.215   1.336 -18.640  0.00  0.00    -0.199 OA
ATOM     13  O   UNL d   1       9.190  -0.155 -17.994  0.00  0.00    -0.199 OA
ENDROOT
BRANCH   1  14
ATOM     14  S   UNL d   1      11.406   4.533 -15.659  0.00  0.00     0.303 S 
ATOM     15  N   UNL d   1      12.418   3.574 -16.646  0.00  0.00    -0.043 N 
ATOM     16  O   UNL d   1      12.113   4.686 -14.377  0.00  0.00    -0.197 OA
ATOM     17  O   UNL d   1      11.017   5.704 -16.451  0.00  0.00    -0.197 OA
ENDBRANCH   1  14
BRANCH   9  18
ATOM     18  C   UNL d   1       4.974  -0.793 -15.328  0.00  0.00     0.205 C 
ATOM     19 CL   UNL d   1       5.856  -1.657 -14.049  0.00  0.00    -0.093 Cl
ATOM     20 CL   UNL d   1       3.536  -0.021 -14.629  0.00  0.00    -0.093 Cl
ENDBRANCH   9  18
TORSDOF 2
