REMARK  0 active torsions:
REMARK  status: ('A' for Active; 'I' for Inactive)
ROOT
ATOM      1  C   UNL d   1      12.039   6.827  -2.953  0.00  0.00     0.035 A 
ATOM      2  C   UNL d   1      11.460   6.490  -4.144  0.00  0.00     0.005 A 
ATOM      3  C   UNL d   1      11.363   7.534  -5.074  0.00  0.00     0.009 A 
ATOM      4  C   UNL d   1      11.844   8.695  -4.544  0.00  0.00     0.006 A 
ATOM      5  S   UNL d   1      12.405   8.514  -2.902  0.00  0.00    -0.091 SA
ATOM      6  C   UNL d   1      11.864   9.952  -5.276  0.00  0.00     0.035 C 
ATOM      7  C   UNL d   1      11.088   9.912  -6.575  0.00  0.00     0.044 C 
ATOM      8  C   UNL d   1      11.254   8.592  -7.335  0.00  0.00     0.288 C 
ATOM      9  N   UNL d   1      10.532   8.598  -8.605  0.00  0.00     0.343 N 
ATOM     10  C   UNL d   1      10.672   7.307  -9.281  0.00  0.00     0.322 C 
ATOM     11  C   UNL d   1      10.258   6.153  -8.341  0.00  0.00     0.181 C 
ATOM     12  O   UNL d   1      11.007   6.235  -7.122  0.00  0.00    -0.348 OA
ATOM     13  C   UNL d   1      10.737   7.447  -6.441  0.00  0.00     0.172 C 
ENDROOT
TORSDOF 0
