REMARK  4 active torsions:
REMARK  status: ('A' for Active; 'I' for Inactive)
REMARK    1  A    between atoms: C_2  and  C_3 
REMARK    2  A    between atoms: C_3  and  N_4 
REMARK    3  A    between atoms: C_8  and  C_9 
REMARK    4  A    between atoms: C_13  and  S_14 
ROOT
ATOM      1  N   UNL d   1       5.397  -0.181 -17.049  0.00  0.00     0.137 N 
ATOM      2  C   UNL d   1       5.113  -1.269 -16.122  0.00  0.00     0.250 C 
ATOM      3  C   UNL d   1       5.097  -0.789 -14.684  0.00  0.00     0.036 C 
ATOM      4  C   UNL d   1       6.424  -0.177 -14.282  0.00  0.00     0.008 C 
ATOM      5  C   UNL d   1       6.810   0.896 -15.321  0.00  0.00     0.056 C 
ATOM      6  C   UNL d   1       6.739   0.361 -16.778  0.00  0.00     0.255 C 
ENDROOT
BRANCH   5   7
ATOM      7  C   UNL d   1       8.191   1.429 -15.015  0.00  0.00    -0.020 A 
ATOM      8  C   UNL d   1       8.340   2.715 -14.432  0.00  0.00     0.002 A 
ATOM      9  C   UNL d   1       9.621   3.192 -14.140  0.00  0.00     0.025 A 
ATOM     10  C   UNL d   1      10.759   2.413 -14.434  0.00  0.00     0.006 A 
ATOM     11  C   UNL d   1      10.603   1.133 -15.014  0.00  0.00     0.000 A 
ATOM     12  C   UNL d   1       9.329   0.646 -15.288  0.00  0.00    -0.004 A 
BRANCH   9  13
ATOM     13  S   UNL d   1       9.861   4.790 -13.426  0.00  0.00    -0.113 SA
ATOM     14  C   UNL d   1       8.320   5.277 -12.596  0.00  0.00     0.074 C 
ENDBRANCH   9  13
ENDBRANCH   5   7
BRANCH   1  15
ATOM     15  C   UNL d   1       5.346  -0.655 -18.441  0.00  0.00     0.250 C 
BRANCH  15  16
ATOM     16  C   UNL d   1       3.913  -1.010 -18.920  0.00  0.00     0.035 C 
ATOM     17  C   UNL d   1       3.391  -2.414 -18.529  0.00  0.00     0.002 C 
ENDBRANCH  15  16
ENDBRANCH   1  15
TORSDOF 4
