REMARK  3 active torsions:
REMARK  status: ('A' for Active; 'I' for Inactive)
REMARK    1  A    between atoms: N_2  and  C_4 
REMARK    2  A    between atoms: C_4  and  C_5 
REMARK    3  A    between atoms: C_9  and  C_10 
ROOT
ATOM      1  C   UNL d   1       8.930   0.713 -16.029  0.00  0.00     0.185 A 
ATOM      2  C   UNL d   1      10.154  -0.126 -15.631  0.00  0.00     0.040 C 
ATOM      3  O   UNL d   1       7.827   0.180 -15.295  0.00  0.00    -0.324 OA
ATOM      4  C   UNL d   1       7.346   1.169 -14.448  0.00  0.00     0.119 A 
ATOM      5  C   UNL d   1       8.002   2.344 -14.504  0.00  0.00     0.061 A 
ATOM      6  C   UNL d   1       9.054   2.126 -15.492  0.00  0.00     0.202 A 
ATOM      7  O   UNL d   1       9.945   2.913 -15.835  0.00  0.00    -0.289 OA
ENDROOT
BRANCH   5   8
ATOM      8  C   UNL d   1       7.615   3.573 -13.802  0.00  0.00     0.005 A 
ATOM      9  C   UNL d   1       6.324   3.724 -13.213  0.00  0.00     0.000 A 
ATOM     10  C   UNL d   1       6.027   4.862 -12.439  0.00  0.00     0.000 A 
ATOM     11  C   UNL d   1       6.992   5.862 -12.249  0.00  0.00     0.000 A 
ATOM     12  C   UNL d   1       8.263   5.742 -12.843  0.00  0.00     0.000 A 
ATOM     13  C   UNL d   1       8.567   4.606 -13.611  0.00  0.00     0.000 A 
ENDBRANCH   5   8
BRANCH   1  14
ATOM     14  C   UNL d   1       8.636   0.637 -17.558  0.00  0.00     0.285 C 
BRANCH  14  15
ATOM     15  N   UNL d   1       7.508   1.438 -18.073  0.00  0.00     0.144 N 
ATOM     16  C   UNL d   1       7.372   1.264 -19.517  0.00  0.00     0.286 C 
ATOM     17  C   UNL d   1       6.233   1.022 -17.477  0.00  0.00     0.286 C 
ENDBRANCH  14  15
ENDBRANCH   1  14
TORSDOF 3
