REMARK  6 active torsions:
REMARK  status: ('A' for Active; 'I' for Inactive)
REMARK    1  A    between atoms: O_2  and  C_3 
REMARK    2  A    between atoms: C_6  and  O_7 
REMARK    3  A    between atoms: O_7  and  C_8 
REMARK    4  A    between atoms: C_8  and  C_9 
REMARK    5  A    between atoms: C_9  and  N_10 
REMARK       I    between atoms: N_13  and  C_14 
REMARK    6  A    between atoms: C_14  and  C_16 
ROOT
ATOM      1  N   UNL d   1       8.997   3.666 -13.361  0.00  0.00     0.144 N 
ATOM      2  C   UNL d   1       9.833   3.850 -12.191  0.00  0.00     0.274 C 
ATOM      3  C   UNL d   1       9.190   4.823 -11.202  0.00  0.00     0.140 C 
ATOM      4  N   UNL d   1       8.969   6.132 -11.848  0.00  0.00    -0.310 N 
ATOM      5  C   UNL d   1       9.367   7.351 -11.380  0.00  0.00     0.293 C 
ATOM      6  O   UNL d   1       9.310   8.382 -12.072  0.00  0.00    -0.264 OA
ATOM      7  C   UNL d   1       8.184   5.976 -13.081  0.00  0.00     0.140 C 
ATOM      8  C   UNL d   1       8.858   4.963 -14.024  0.00  0.00     0.274 C 
ENDROOT
BRANCH   1   9
ATOM      9  C   UNL d   1       9.658   2.705 -14.236  0.00  0.00     0.283 C 
BRANCH   9  10
ATOM     10  C   UNL d   1       8.617   1.949 -15.056  0.00  0.00     0.184 C 
BRANCH  10  11
ATOM     11  O   UNL d   1       7.909   1.026 -14.236  0.00  0.00    -0.329 OA
BRANCH  11  12
ATOM     12  C   UNL d   1       6.846   0.398 -14.836  0.00  0.00     0.094 A 
ATOM     13  C   UNL d   1       6.846   0.094 -16.214  0.00  0.00     0.026 A 
ATOM     14  C   UNL d   1       5.732  -0.492 -16.818  0.00  0.00     0.026 A 
ATOM     15  C   UNL d   1       4.580  -0.812 -16.065  0.00  0.00     0.094 A 
ATOM     16  C   UNL d   1       4.580  -0.528 -14.678  0.00  0.00     0.026 A 
ATOM     17  C   UNL d   1       5.711   0.060 -14.066  0.00  0.00     0.026 A 
BRANCH  15  18
ATOM     18  O   UNL d   1       3.463  -1.375 -16.636  0.00  0.00    -0.328 OA
ATOM     19  C   UNL d   1       3.514  -1.639 -18.034  0.00  0.00     0.181 C 
ENDBRANCH  15  18
ENDBRANCH  11  12
ENDBRANCH  10  11
ENDBRANCH   9  10
ENDBRANCH   1   9
BRANCH   5  20
ATOM     20  C   UNL d   1       9.854   7.489  -9.981  0.00  0.00     0.220 A 
ATOM     21  N   UNL d   1      10.348   8.681  -9.556  0.00  0.00    -0.221 NA
ATOM     22  C   UNL d   1      10.681   8.560  -8.221  0.00  0.00     0.101 A 
ATOM     23  C   UNL d   1      10.323   7.210  -7.929  0.00  0.00     0.101 A 
ATOM     24  C   UNL d   1      11.230   9.397  -7.231  0.00  0.00     0.021 A 
ATOM     25  N   UNL d   1       9.796   6.578  -9.007  0.00  0.00    -0.221 NA
ATOM     26  C   UNL d   1      10.580   6.732  -6.620  0.00  0.00     0.021 A 
ATOM     27  C   UNL d   1      11.141   7.547  -5.629  0.00  0.00     0.002 A 
ATOM     28  C   UNL d   1      11.464   8.891  -5.925  0.00  0.00     0.002 A 
ENDBRANCH   5  20
TORSDOF 6
