REMARK  4 active torsions:
REMARK  status: ('A' for Active; 'I' for Inactive)
REMARK    1  A    between atoms: C_3  and  C_4 
REMARK    2  A    between atoms: N_13  and  C_14 
REMARK    3  A    between atoms: N_17  and  C_18 
REMARK    4  A    between atoms: C_18  and  C_19 
ROOT
ATOM      1  C   UNL d   1       9.227   7.497 -12.242  0.00  0.00     0.052 C 
ATOM      2  C   UNL d   1       9.332   6.120 -11.626  0.00  0.00     0.061 A 
ATOM      3  C   UNL d   1       9.331   4.924 -12.222  0.00  0.00     0.115 A 
ATOM      4  N   UNL d   1       9.466   4.025 -11.244  0.00  0.00    -0.190 NA
ATOM      5  C   UNL d   1       9.464   4.589 -10.046  0.00  0.00     0.350 A 
ATOM      6  O   UNL d   1       9.466   3.998  -8.970  0.00  0.00    -0.244 OA
ATOM      7  N   UNL d   1       9.439   5.919 -10.248  0.00  0.00    -0.284 N 
ENDROOT
BRANCH   7   8
ATOM      8  C   UNL d   1       9.549   6.993  -9.230  0.00  0.00     0.094 C 
ATOM      9  C   UNL d   1       9.418   6.541  -7.761  0.00  0.00     0.058 C 
ATOM     10  C   UNL d   1       9.551   7.693  -6.775  0.00  0.00     0.253 C 
ATOM     11  N   UNL d   1      10.869   8.303  -6.974  0.00  0.00     0.141 N 
ATOM     12  C   UNL d   1      10.925   8.892  -8.307  0.00  0.00     0.253 C 
ATOM     13  C   UNL d   1      10.842   7.810  -9.383  0.00  0.00     0.058 C 
BRANCH  11  14
ATOM     14  C   UNL d   1      11.094   9.321  -5.958  0.00  0.00     0.277 C 
BRANCH  14  15
ATOM     15  C   UNL d   1      11.526   8.747  -4.619  0.00  0.00     0.011 A 
ATOM     16  C   UNL d   1      11.667   9.623  -3.532  0.00  0.00    -0.002 A 
ATOM     17  C   UNL d   1      12.143   9.153  -2.298  0.00  0.00    -0.000 A 
ATOM     18  C   UNL d   1      12.413   7.789  -2.121  0.00  0.00    -0.000 A 
ATOM     19  C   UNL d   1      12.255   6.896  -3.189  0.00  0.00    -0.000 A 
ATOM     20  C   UNL d   1      11.830   7.374  -4.439  0.00  0.00    -0.002 A 
ENDBRANCH  14  15
ENDBRANCH  11  14
ENDBRANCH   7   8
BRANCH   3  21
ATOM     21  C   UNL d   1       9.390   4.519 -13.623  0.00  0.00     0.100 A 
ATOM     22  N   UNL d   1      10.257   5.185 -14.410  0.00  0.00    -0.242 NA
ATOM     23  C   UNL d   1      10.305   4.810 -15.700  0.00  0.00     0.099 A 
ATOM     24  C   UNL d   1       9.527   3.764 -16.235  0.00  0.00     0.021 A 
ATOM     25  C   UNL d   1       8.664   3.044 -15.391  0.00  0.00     0.003 A 
ATOM     26  C   UNL d   1       8.605   3.426 -14.042  0.00  0.00     0.021 A 
ENDBRANCH   3  21
TORSDOF 4
