REMARK  7 active torsions:
REMARK  status: ('A' for Active; 'I' for Inactive)
REMARK    1  A    between atoms: O_2  and  C_3 
REMARK    2  A    between atoms: C_8  and  N_9 
REMARK    3  A    between atoms: N_12  and  C_13 
REMARK    4  A    between atoms: C_13  and  C_14 
REMARK    5  A    between atoms: C_18  and  C_19 
REMARK    6  A    between atoms: C_19  and  N_20 
REMARK       I    between atoms: N_20  and  C_21 
REMARK    7  A    between atoms: C_21  and  C_23 
ROOT
ATOM      1  C   UNL d   1      10.773   1.636 -20.104  0.00  0.00     0.011 A 
ATOM      2  C   UNL d   1      11.394   0.599 -19.380  0.00  0.00    -0.002 A 
ATOM      3  C   UNL d   1      12.146   0.909 -18.215  0.00  0.00    -0.001 A 
ATOM      4  C   UNL d   1      12.293   2.241 -17.801  0.00  0.00    -0.002 A 
ATOM      5  C   UNL d   1      11.729   3.295 -18.556  0.00  0.00     0.002 A 
ATOM      6  C   UNL d   1      11.008   2.976 -19.737  0.00  0.00    -0.005 A 
ENDROOT
BRANCH   1   7
ATOM      7  C   UNL d   1       9.809   1.343 -21.271  0.00  0.00     0.277 C 
BRANCH   7   8
ATOM      8  N   UNL d   1       8.538   0.712 -20.887  0.00  0.00     0.145 N 
ATOM      9  C   UNL d   1       7.614   1.655 -20.239  0.00  0.00     0.275 C 
ATOM     10  C   UNL d   1       6.283   0.947 -19.873  0.00  0.00     0.137 C 
ATOM     11  N   UNL d   1       6.537  -0.245 -19.081  0.00  0.00    -0.343 N 
ATOM     12  C   UNL d   1       7.470  -1.195 -19.666  0.00  0.00     0.137 C 
ATOM     13  C   UNL d   1       8.762  -0.446 -20.011  0.00  0.00     0.275 C 
BRANCH  11  14
ATOM     14  C   UNL d   1       5.922  -0.453 -17.856  0.00  0.00     0.079 A 
ATOM     15  C   UNL d   1       4.911  -1.440 -17.742  0.00  0.00     0.110 A 
ATOM     16  C   UNL d   1       4.270  -1.615 -16.495  0.00  0.00     0.026 A 
ATOM     17  C   UNL d   1       4.632  -0.845 -15.378  0.00  0.00     0.002 A 
ATOM     18  C   UNL d   1       5.650   0.118 -15.491  0.00  0.00     0.002 A 
ATOM     19  C   UNL d   1       6.288   0.318 -16.729  0.00  0.00     0.019 A 
BRANCH  15  20
ATOM     20  O   UNL d   1       4.604  -2.171 -18.870  0.00  0.00    -0.327 OA
ATOM     21  C   UNL d   1       3.629  -3.199 -18.761  0.00  0.00     0.181 C 
ENDBRANCH  15  20
ENDBRANCH  11  14
ENDBRANCH   7   8
ENDBRANCH   1   7
BRANCH   5  22
ATOM     22  C   UNL d   1      11.870   4.735 -18.044  0.00  0.00     0.155 C 
BRANCH  22  23
ATOM     23  N   UNL d   1      11.166   5.745 -18.830  0.00  0.00    -0.229 NA
ATOM     24  C   UNL d   1       9.837   5.798 -19.000  0.00  0.00     0.275 C 
ATOM     25  O   UNL d   1       9.058   5.069 -18.389  0.00  0.00    -0.266 OA
BRANCH  24  26
ATOM     26  C   UNL d   1       9.337   6.823 -19.977  0.00  0.00     0.058 A 
ATOM     27  C   UNL d   1       7.977   7.207 -19.952  0.00  0.00     0.005 A 
ATOM     28  C   UNL d   1       7.482   8.160 -20.855  0.00  0.00     0.000 A 
ATOM     29  C   UNL d   1       8.344   8.735 -21.819  0.00  0.00     0.000 A 
ATOM     30  C   UNL d   1       6.130   8.559 -20.797  0.00  0.00     0.000 A 
ATOM     31  C   UNL d   1       9.695   8.335 -21.874  0.00  0.00     0.000 A 
ATOM     32  C   UNL d   1       7.853   9.703 -22.712  0.00  0.00     0.000 A 
ATOM     33  C   UNL d   1      10.185   7.380 -20.965  0.00  0.00     0.005 A 
ATOM     34  C   UNL d   1       6.503  10.103 -22.648  0.00  0.00     0.000 A 
ATOM     35  C   UNL d   1       5.642   9.529 -21.690  0.00  0.00     0.000 A 
ENDBRANCH  24  26
ENDBRANCH  22  23
ENDBRANCH   5  22
TORSDOF 7
