REMARK  6 active torsions:
REMARK  status: ('A' for Active; 'I' for Inactive)
REMARK    1  A    between atoms: C_2  and  N_3 
REMARK       I    between atoms: N_6  and  C_7 
REMARK       I    between atoms: C_7  and  N_9 
REMARK    2  A    between atoms: N_9  and  CA_10 
REMARK    3  A    between atoms: CA_10  and  C_11 
REMARK    4  A    between atoms: CA_10  and  C_27 
REMARK       I    between atoms: C_11  and  N_13 
REMARK    5  A    between atoms: N_13  and  CA_14 
REMARK    6  A    between atoms: CA_18  and  C_19 
ROOT
ATOM      1  CA  UNL d   1       9.427   5.753 -12.347  0.00  0.00     0.210 C 
ENDROOT
BRANCH   1   2
ATOM      2  N   UNL d   1       9.949   5.518 -13.683  0.00  0.00    -0.206 NA
ATOM      3  C   UNL d   1      10.585   4.437 -14.143  0.00  0.00     0.349 C 
ATOM      4  N   UNL d   1      10.973   4.547 -15.437  0.00  0.00    -0.242 N 
ATOM      5  O   UNL d   1      10.717   3.429 -13.456  0.00  0.00    -0.245 OA
ATOM      6  C   UNL d   1      11.812   5.718 -15.801  0.00  0.00     0.138 C 
ATOM      7  C   UNL d   1      10.828   3.496 -16.300  0.00  0.00     0.320 C 
ATOM      8  C   UNL d   1      11.787   6.039 -17.299  0.00  0.00     0.129 C 
ATOM      9  N   UNL d   1      11.852   4.841 -18.136  0.00  0.00    -0.311 N 
ATOM     10  C   UNL d   1      11.399   3.630 -17.733  0.00  0.00     0.314 C 
ATOM     11  O   UNL d   1      11.383   2.627 -18.451  0.00  0.00    -0.262 OA
ATOM     12  O   UNL d   1      10.235   2.440 -16.056  0.00  0.00    -0.262 OA
BRANCH   9  13
ATOM     13  C   UNL d   1      12.384   5.033 -19.489  0.00  0.00     0.105 C 
ATOM     14  C   UNL d   1      13.824   4.508 -19.589  0.00  0.00     0.026 C 
ENDBRANCH   9  13
ENDBRANCH   1   2
BRANCH   1  15
ATOM     15  C   UNL d   1       9.452   7.235 -11.937  0.00  0.00     0.279 C 
ATOM     16  O   UNL d   1       9.466   8.120 -12.816  0.00  0.00    -0.268 OA
ATOM     17  N   UNL d   1       9.467   7.447 -10.612  0.00  0.00    -0.226 NA
BRANCH  17  18
ATOM     18  CA  UNL d   1       9.635   8.777 -10.084  0.00  0.00     0.215 A 
ATOM     19  C   UNL d   1       9.374   8.848  -8.583  0.00  0.00     0.164 A 
ATOM     20  N   UNL d   1      10.790   9.071  -8.374  0.00  0.00    -0.300 N 
ATOM     21  S   UNL d   1       9.057   7.405  -7.517  0.00  0.00    -0.116 SA
ATOM     22  C   UNL d   1      11.116   8.984  -9.718  0.00  0.00     0.260 A 
ATOM     23  CA  UNL d   1      11.479   8.623  -7.194  0.00  0.00     0.181 C 
ATOM     24  O   UNL d   1      12.141   8.953 -10.300  0.00  0.00    -0.270 OA
ATOM     25  C   UNL d   1      10.699   7.318  -6.739  0.00  0.00     0.070 C 
ATOM     26  C   UNL d   1      11.351   6.068  -7.321  0.00  0.00     0.013 C 
ATOM     27  C   UNL d   1      10.512   7.090  -5.228  0.00  0.00     0.013 C 
BRANCH  23  28
ATOM     28  C   UNL d   1      11.462   9.773  -6.180  0.00  0.00     0.207 C 
ATOM     29  O   UNL d   1      12.512  10.385  -5.990  0.00  0.00    -0.646 OA
ATOM     30  OXT UNL d   1      10.307  10.019  -5.494  0.00  0.00    -0.646 OA
ENDBRANCH  23  28
ENDBRANCH  17  18
ENDBRANCH   1  15
BRANCH   1  31
ATOM     31  C   UNL d   1       8.017   5.328 -12.314  0.00  0.00     0.009 A 
ATOM     32  C   UNL d   1       7.682   3.985 -12.620  0.00  0.00    -0.002 A 
ATOM     33  C   UNL d   1       6.360   3.517 -12.572  0.00  0.00    -0.000 A 
ATOM     34  C   UNL d   1       5.353   4.383 -12.190  0.00  0.00    -0.000 A 
ATOM     35  C   UNL d   1       5.647   5.704 -11.849  0.00  0.00    -0.000 A 
ATOM     36  C   UNL d   1       6.929   6.172 -11.964  0.00  0.00    -0.002 A 
ENDBRANCH   1  31
TORSDOF 6
