REMARK  6 active torsions:
REMARK  status: ('A' for Active; 'I' for Inactive)
REMARK    1  A    between atoms: N_11  and  C_12 
REMARK    2  A    between atoms: C_12  and  C_13 
REMARK    3  A    between atoms: C_13  and  C_14 
REMARK    4  A    between atoms: C_17  and  N_18 
REMARK       I    between atoms: N_18  and  C_19 
REMARK    5  A    between atoms: C_19  and  C_21 
REMARK    6  A    between atoms: C_22  and  C_23 
ROOT
ATOM      1  N   UNL d   1       9.129  -1.020 -21.177  0.00  0.00    -0.191 NA
ATOM      2  C   UNL d   1       9.539  -0.421 -20.285  0.00  0.00     0.101 C 
ATOM      3  C   UNL d   1      10.059   0.334 -19.161  0.00  0.00     0.068 A 
ATOM      4  C   UNL d   1      11.258   0.004 -18.569  0.00  0.00     0.010 A 
ATOM      5  C   UNL d   1      11.744   0.763 -17.472  0.00  0.00    -0.004 A 
ATOM      6  C   UNL d   1      10.996   1.863 -16.965  0.00  0.00    -0.024 A 
ATOM      7  C   UNL d   1       9.774   2.195 -17.579  0.00  0.00    -0.023 A 
ATOM      8  C   UNL d   1       9.300   1.427 -18.687  0.00  0.00     0.006 A 
ATOM      9  C   UNL d   1       8.829   3.337 -17.181  0.00  0.00     0.061 C 
ATOM     10  C   UNL d   1       9.535   4.691 -16.979  0.00  0.00     0.255 C 
ATOM     11  N   UNL d   1      10.338   4.749 -15.762  0.00  0.00     0.138 N 
ATOM     12  C   UNL d   1      11.650   4.122 -15.872  0.00  0.00     0.255 C 
ATOM     13  C   UNL d   1      11.627   2.581 -15.754  0.00  0.00     0.061 C 
ENDROOT
BRANCH  11  14
ATOM     14  C   UNL d   1       9.681   4.305 -14.532  0.00  0.00     0.250 C 
BRANCH  14  15
ATOM     15  C   UNL d   1       8.371   5.046 -14.221  0.00  0.00     0.035 C 
BRANCH  15  16
ATOM     16  C   UNL d   1       8.312   5.496 -12.772  0.00  0.00     0.002 C 
ATOM     17  C   UNL d   1       9.274   6.672 -12.620  0.00  0.00     0.002 C 
ATOM     18  C   UNL d   1       9.305   7.160 -11.211  0.00  0.00     0.024 C 
ATOM     19  C   UNL d   1       9.602   6.065 -10.177  0.00  0.00     0.107 C 
ATOM     20  C   UNL d   1       8.636   4.862 -10.338  0.00  0.00     0.024 C 
ATOM     21  C   UNL d   1       8.619   4.351 -11.785  0.00  0.00     0.002 C 
BRANCH  19  22
ATOM     22  N   UNL d   1       9.524   6.534  -8.798  0.00  0.00    -0.236 NA
ATOM     23  C   UNL d   1      10.227   7.557  -8.293  0.00  0.00     0.275 C 
ATOM     24  O   UNL d   1      10.576   8.546  -8.938  0.00  0.00    -0.266 OA
BRANCH  23  25
ATOM     25  C   UNL d   1      10.599   7.293  -6.916  0.00  0.00     0.062 C 
ATOM     26  C   UNL d   1      11.062   8.309  -6.169  0.00  0.00     0.005 C 
BRANCH  26  27
ATOM     27  C   UNL d   1      11.536   8.202  -4.803  0.00  0.00     0.000 A 
ATOM     28  C   UNL d   1      11.688   9.390  -4.080  0.00  0.00     0.002 A 
ATOM     29  C   UNL d   1      12.144   9.320  -2.741  0.00  0.00     0.030 A 
ATOM     30  C   UNL d   1      12.449   8.080  -2.162  0.00  0.00     0.140 A 
ATOM     31  C   UNL d   1      12.256   6.896  -2.876  0.00  0.00     0.030 A 
ATOM     32  F   UNL d   1      12.996   8.017  -0.938  0.00  0.00    -0.204 F 
ATOM     33  C   UNL d   1      11.813   6.951  -4.221  0.00  0.00     0.002 A 
ENDBRANCH  26  27
ENDBRANCH  23  25
ENDBRANCH  19  22
ENDBRANCH  15  16
ENDBRANCH  14  15
ENDBRANCH  11  14
TORSDOF 6
