REMARK  2 active torsions:
REMARK  status: ('A' for Active; 'I' for Inactive)
REMARK    1  A    between atoms: N_14  and  C_15 
REMARK    2  A    between atoms: C_15  and  C_16 
ROOT
ATOM      1  O   UNL d   1       9.579   4.996 -13.632  0.00  0.00    -0.291 OA
ATOM      2  C   UNL d   1       8.461   4.660 -13.223  0.00  0.00     0.172 C 
ATOM      3  C   UNL d   1       7.817   3.417 -13.706  0.00  0.00     0.031 A 
ATOM      4  C   UNL d   1       8.532   2.571 -14.576  0.00  0.00     0.003 A 
ATOM      5  C   UNL d   1       7.975   1.363 -15.042  0.00  0.00     0.000 A 
ATOM      6  C   UNL d   1       6.687   0.994 -14.615  0.00  0.00    -0.000 A 
ATOM      7  C   UNL d   1       5.959   1.818 -13.730  0.00  0.00    -0.004 A 
ATOM      8  C   UNL d   1       6.506   3.045 -13.290  0.00  0.00    -0.019 A 
ATOM      9  C   UNL d   1       5.704   3.898 -12.315  0.00  0.00     0.027 C 
ATOM     10  C   UNL d   1       6.156   5.343 -12.337  0.00  0.00     0.012 C 
ATOM     11  C   UNL d   1       7.703   5.518 -12.179  0.00  0.00     0.060 C 
ATOM     12  C   UNL d   1       8.061   6.990 -12.359  0.00  0.00     0.043 C 
ATOM     13  C   UNL d   1       9.457   7.381 -11.837  0.00  0.00     0.251 C 
ATOM     14  N   UNL d   1       9.665   6.957 -10.456  0.00  0.00     0.141 N 
ATOM     15  C   UNL d   1       9.469   5.514 -10.315  0.00  0.00     0.251 C 
ATOM     16  C   UNL d   1       8.069   5.124 -10.740  0.00  0.00     0.043 C 
ENDROOT
BRANCH  14  17
ATOM     17  C   UNL d   1      11.009   7.302 -10.011  0.00  0.00     0.277 C 
BRANCH  17  18
ATOM     18  C   UNL d   1      11.063   7.814  -8.594  0.00  0.00     0.011 A 
ATOM     19  C   UNL d   1      11.185   6.949  -7.485  0.00  0.00    -0.002 A 
ATOM     20  C   UNL d   1      11.286   7.492  -6.190  0.00  0.00    -0.000 A 
ATOM     21  C   UNL d   1      11.250   8.895  -5.991  0.00  0.00    -0.000 A 
ATOM     22  C   UNL d   1      11.460   6.649  -5.083  0.00  0.00    -0.000 A 
ATOM     23  C   UNL d   1      11.106   9.734  -7.091  0.00  0.00    -0.000 A 
ATOM     24  C   UNL d   1      11.360   9.451  -4.697  0.00  0.00    -0.000 A 
ATOM     25  C   UNL d   1      11.024   9.195  -8.397  0.00  0.00    -0.002 A 
ATOM     26  C   UNL d   1      11.537   8.599  -3.600  0.00  0.00    -0.000 A 
ATOM     27  C   UNL d   1      11.590   7.203  -3.795  0.00  0.00    -0.000 A 
ENDBRANCH  17  18
ENDBRANCH  14  17
TORSDOF 2
