REMARK  0 active torsions:
REMARK  status: ('A' for Active; 'I' for Inactive)
ROOT
ATOM      1  C   UNL d   1       8.755   6.885 -12.291  0.00  0.00     0.286 C 
ATOM      2  N   UNL d   1       7.808   5.893 -12.798  0.00  0.00     0.142 N 
ATOM      3  C   UNL d   1       6.909   5.530 -11.697  0.00  0.00     0.255 C 
ATOM      4  C   UNL d   1       5.742   4.669 -12.217  0.00  0.00     0.061 C 
ATOM      5  C   UNL d   1       6.165   3.450 -13.014  0.00  0.00    -0.022 A 
ATOM      6  C   UNL d   1       5.463   2.236 -13.239  0.00  0.00    -0.005 A 
ATOM      7  C   UNL d   1       6.035   1.189 -14.025  0.00  0.00    -0.004 A 
ATOM      8  C   UNL d   1       7.315   1.366 -14.601  0.00  0.00    -0.018 A 
ATOM      9  C   UNL d   1       7.975   2.568 -14.386  0.00  0.00    -0.007 A 
ATOM     10  C   UNL d   1       7.434   3.577 -13.599  0.00  0.00     0.005 A 
ATOM     11  C   UNL d   1       8.465   4.669 -13.280  0.00  0.00     0.246 C 
ATOM     12  C   UNL d   1       9.485   4.940 -14.432  0.00  0.00     0.064 C 
ATOM     13  C   UNL d   1      10.091   3.699 -15.087  0.00  0.00    -0.020 A 
ATOM     14  C   UNL d   1      11.299   3.540 -15.802  0.00  0.00    -0.004 A 
ATOM     15  C   UNL d   1      11.595   2.299 -16.431  0.00  0.00    -0.001 A 
ATOM     16  C   UNL d   1      10.692   1.204 -16.370  0.00  0.00    -0.004 A 
ATOM     17  C   UNL d   1       9.488   1.365 -15.661  0.00  0.00    -0.018 A 
ATOM     18  C   UNL d   1       9.250   2.588 -15.047  0.00  0.00    -0.008 A 
ATOM     19  C   UNL d   1       8.258   0.492 -15.415  0.00  0.00     0.053 A 
ENDROOT
TORSDOF 0
