REMARK  5 active torsions:
REMARK  status: ('A' for Active; 'I' for Inactive)
REMARK    1  A    between atoms: N_11  and  C_12 
REMARK    2  A    between atoms: C_12  and  C_13 
REMARK    3  A    between atoms: C_13  and  C_14 
REMARK    4  A    between atoms: C_14  and  N_15 
REMARK    5  A    between atoms: C_18  and  N_19 
ROOT
ATOM      1  N   UNL d   1       9.264   6.392  -9.168  0.00  0.00     0.137 N 
ATOM      2  C   UNL d   1      10.713   6.367  -9.087  0.00  0.00     0.252 C 
ATOM      3  C   UNL d   1      11.232   7.360  -8.066  0.00  0.00     0.058 C 
ATOM      4  C   UNL d   1      10.646   7.080  -6.671  0.00  0.00     0.094 C 
ATOM      5  C   UNL d   1       9.112   6.982  -6.786  0.00  0.00     0.058 C 
ATOM      6  C   UNL d   1       8.688   6.003  -7.892  0.00  0.00     0.252 C 
ENDROOT
BRANCH   1   7
ATOM      7  C   UNL d   1       8.757   5.519 -10.216  0.00  0.00     0.252 C 
BRANCH   7   8
ATOM      8  C   UNL d   1       9.320   5.920 -11.594  0.00  0.00     0.060 C 
BRANCH   8   9
ATOM      9  C   UNL d   1       8.334   5.747 -12.763  0.00  0.00     0.111 C 
BRANCH   9  10
ATOM     10  N   UNL d   1       8.591   4.558 -13.604  0.00  0.00    -0.295 N 
ATOM     11  C   UNL d   1       9.742   4.487 -14.317  0.00  0.00     0.268 C 
ATOM     12  O   UNL d   1      10.664   5.299 -14.233  0.00  0.00    -0.269 OA
ATOM     13  C   UNL d   1       9.917   3.326 -15.302  0.00  0.00     0.236 C 
ATOM     14  O   UNL d   1       9.299   2.130 -14.842  0.00  0.00    -0.319 OA
ATOM     15  C   UNL d   1       8.032   2.280 -14.344  0.00  0.00     0.110 A 
ATOM     16  C   UNL d   1       7.626   3.496 -13.721  0.00  0.00     0.085 A 
ATOM     17  C   UNL d   1       7.162   1.168 -14.390  0.00  0.00     0.026 A 
ATOM     18  C   UNL d   1       6.312   3.576 -13.196  0.00  0.00     0.019 A 
ATOM     19  C   UNL d   1       5.460   2.463 -13.240  0.00  0.00     0.002 A 
ATOM     20  C   UNL d   1       5.874   1.260 -13.832  0.00  0.00     0.002 A 
ENDBRANCH   9  10
ENDBRANCH   8   9
ENDBRANCH   7   8
ENDBRANCH   1   7
BRANCH   4  21
ATOM     21  N   UNL d   1      11.062   8.084  -5.678  0.00  0.00    -0.280 N 
ATOM     22  C   UNL d   1      11.553   7.793  -4.399  0.00  0.00     0.085 A 
ATOM     23  C   UNL d   1      11.794   8.983  -3.765  0.00  0.00     0.121 A 
ATOM     24  C   UNL d   1      11.766   6.587  -3.740  0.00  0.00     0.040 A 
ATOM     25  N   UNL d   1      11.455   9.991  -4.654  0.00  0.00    -0.189 NA
ATOM     26  C   UNL d   1      12.249   9.021  -2.442  0.00  0.00     0.120 A 
ATOM     27  C   UNL d   1      11.045   9.426  -5.788  0.00  0.00     0.350 A 
ATOM     28  O   UNL d   1      10.715  10.050  -6.790  0.00  0.00    -0.244 OA
ATOM     29  N   UNL d   1      12.502   7.864  -1.790  0.00  0.00    -0.241 NA
ATOM     30  C   UNL d   1      12.256   6.683  -2.421  0.00  0.00     0.101 A 
ENDBRANCH   4  21
TORSDOF 5
