REMARK  9 active torsions:
REMARK  status: ('A' for Active; 'I' for Inactive)
REMARK    1  A    between atoms: C_5  and  O_6 
REMARK    2  A    between atoms: O_6  and  C_7 
REMARK    3  A    between atoms: C_7  and  C_8 
REMARK    4  A    between atoms: C_8  and  N_9 
REMARK    5  A    between atoms: N_9  and  C_10 
REMARK    6  A    between atoms: C_10  and  C_11 
REMARK    7  A    between atoms: C_11  and  C_12 
REMARK    8  A    between atoms: C_12  and  O_13 
REMARK    9  A    between atoms: O_13  and  C_14 
ROOT
ATOM      1  N   UNL d   1       9.059   6.192  -9.928  0.00  0.00     0.342 N 
ENDROOT
BRANCH   1   2
ATOM      2  C   UNL d   1       9.175   5.278 -11.039  0.00  0.00     0.323 C 
BRANCH   2   3
ATOM      3  C   UNL d   1       8.557   5.912 -12.292  0.00  0.00     0.187 C 
BRANCH   3   4
ATOM      4  O   UNL d   1       8.793   5.055 -13.401  0.00  0.00    -0.329 OA
BRANCH   4   5
ATOM      5  C   UNL d   1       7.952   3.983 -13.598  0.00  0.00     0.094 A 
ATOM      6  C   UNL d   1       6.669   3.945 -13.015  0.00  0.00     0.024 A 
ATOM      7  C   UNL d   1       5.830   2.829 -13.234  0.00  0.00    -0.002 A 
ATOM      8  C   UNL d   1       6.261   1.755 -14.041  0.00  0.00    -0.022 A 
ATOM      9  C   UNL d   1       5.340   0.570 -14.262  0.00  0.00     0.031 C 
ATOM     10  C   UNL d   1       7.539   1.789 -14.632  0.00  0.00    -0.002 A 
ATOM     11  C   UNL d   1       8.373   2.905 -14.412  0.00  0.00     0.024 A 
ENDBRANCH   4   5
ENDBRANCH   3   4
ENDBRANCH   2   3
ENDBRANCH   1   2
BRANCH   1  12
ATOM     12  C   UNL d   1       9.664   5.639  -8.732  0.00  0.00     0.293 C 
BRANCH  12  13
ATOM     13  C   UNL d   1       9.675   6.713  -7.642  0.00  0.00     0.071 C 
BRANCH  13  14
ATOM     14  C   UNL d   1      10.766   7.788  -7.891  0.00  0.00     0.151 C 
BRANCH  14  15
ATOM     15  O   UNL d   1      10.614   8.908  -7.034  0.00  0.00    -0.331 OA
BRANCH  15  16
ATOM     16  C   UNL d   1      11.021   8.808  -5.728  0.00  0.00     0.094 A 
ATOM     17  C   UNL d   1      11.453   7.609  -5.114  0.00  0.00     0.020 A 
ATOM     18  C   UNL d   1      11.896   7.613  -3.774  0.00  0.00    -0.020 A 
ATOM     19  C   UNL d   1      11.890   8.796  -3.023  0.00  0.00    -0.004 A 
ATOM     20  C   UNL d   1      12.393   6.355  -3.128  0.00  0.00     0.031 C 
ATOM     21  C   UNL d   1      11.440   9.971  -3.626  0.00  0.00     0.002 A 
ATOM     22  C   UNL d   1      11.000   9.989  -4.962  0.00  0.00     0.024 A 
ENDBRANCH  15  16
ENDBRANCH  14  15
ENDBRANCH  13  14
ENDBRANCH  12  13
ENDBRANCH   1  12
TORSDOF 9
