REMARK  1 active torsions:
REMARK  status: ('A' for Active; 'I' for Inactive)
REMARK    1  A    between atoms: N_3  and  C_4 
ROOT
ATOM      1  S   UNL d   1       3.459  -0.573 -14.430  0.00  0.00    -0.055 SA
ATOM      2  C   UNL d   1       4.950  -0.018 -14.514  0.00  0.00     0.163 C 
ATOM      3  N   UNL d   1       6.062   0.482 -14.543  0.00  0.00    -0.232 NA
ENDROOT
BRANCH   3   4
ATOM      4  C   UNL d   1       6.641   1.693 -14.153  0.00  0.00     0.082 A 
ATOM      5  C   UNL d   1       8.007   1.967 -14.441  0.00  0.00     0.018 A 
ATOM      6  C   UNL d   1       8.575   3.204 -14.032  0.00  0.00     0.002 A 
ATOM      7  C   UNL d   1       8.824   1.034 -15.121  0.00  0.00     0.002 A 
ATOM      8  C   UNL d   1       7.792   4.156 -13.349  0.00  0.00     0.000 A 
ATOM      9  C   UNL d   1       9.929   3.491 -14.307  0.00  0.00     0.000 A 
ATOM     10  C   UNL d   1       6.442   3.885 -13.067  0.00  0.00     0.002 A 
ATOM     11  C   UNL d   1       5.871   2.663 -13.465  0.00  0.00     0.019 A 
ATOM     12  C   UNL d   1      10.727   2.554 -14.987  0.00  0.00     0.000 A 
ATOM     13  C   UNL d   1      10.174   1.326 -15.394  0.00  0.00     0.000 A 
ENDBRANCH   3   4
TORSDOF 1
