REMARK  7 active torsions:
REMARK  status: ('A' for Active; 'I' for Inactive)
REMARK    1  A    between atoms: C_8  and  O_9 
REMARK    2  A    between atoms: O_9  and  C_10 
REMARK    3  A    between atoms: C_10  and  C_11 
REMARK    4  A    between atoms: C_11  and  C_12 
REMARK    5  A    between atoms: C_12  and  C_13 
REMARK    6  A    between atoms: C_13  and  N_14 
REMARK    7  A    between atoms: N_17  and  C_18 
ROOT
ATOM      1  N   UNL d   1       9.228   6.363 -10.873  0.00  0.00     0.141 N 
ATOM      2  C   UNL d   1      10.339   7.295 -10.656  0.00  0.00     0.274 C 
ATOM      3  C   UNL d   1      10.152   8.158  -9.412  0.00  0.00     0.137 C 
ATOM      4  N   UNL d   1       9.942   7.317  -8.258  0.00  0.00    -0.344 N 
ATOM      5  C   UNL d   1       8.922   6.286  -8.417  0.00  0.00     0.137 C 
ATOM      6  C   UNL d   1       9.129   5.466  -9.717  0.00  0.00     0.274 C 
ENDROOT
BRANCH   1   7
ATOM      7  C   UNL d   1       9.443   5.650 -12.114  0.00  0.00     0.251 C 
BRANCH   7   8
ATOM      8  C   UNL d   1       8.206   4.851 -12.539  0.00  0.00     0.038 C 
BRANCH   8   9
ATOM      9  C   UNL d   1       8.349   4.276 -13.944  0.00  0.00     0.035 C 
BRANCH   9  10
ATOM     10  C   UNL d   1       9.339   3.086 -14.013  0.00  0.00     0.149 C 
BRANCH  10  11
ATOM     11  O   UNL d   1       9.307   2.493 -15.308  0.00  0.00    -0.331 OA
BRANCH  11  12
ATOM     12  C   UNL d   1       8.247   1.676 -15.644  0.00  0.00     0.094 A 
ATOM     13  C   UNL d   1       8.178   1.256 -16.998  0.00  0.00     0.024 A 
ATOM     14  C   UNL d   1       7.142   0.409 -17.460  0.00  0.00    -0.000 A 
ATOM     15  C   UNL d   1       6.183  -0.006 -16.524  0.00  0.00     0.007 A 
ATOM     16  C   UNL d   1       4.975  -0.896 -16.698  0.00  0.00     0.155 A 
ATOM     17  C   UNL d   1       6.237   0.403 -15.206  0.00  0.00     0.057 A 
ATOM     18  N   UNL d   1       4.403  -0.912 -15.343  0.00  0.00    -0.229 NA
ATOM     19  C   UNL d   1       5.092  -0.169 -14.461  0.00  0.00     0.275 A 
ATOM     20  O   UNL d   1       4.843   0.012 -13.271  0.00  0.00    -0.266 OA
ATOM     21  C   UNL d   1       7.252   1.242 -14.725  0.00  0.00     0.029 A 
ENDBRANCH  11  12
ENDBRANCH  10  11
ENDBRANCH   9  10
ENDBRANCH   8   9
ENDBRANCH   7   8
ENDBRANCH   1   7
BRANCH   4  22
ATOM     22  C   UNL d   1      10.662   7.478  -7.051  0.00  0.00     0.054 C 
ATOM     23  C   UNL d   1      11.030   8.687  -6.471  0.00  0.00     0.018 C 
ATOM     24  C   UNL d   1      11.685   8.764  -5.269  0.00  0.00     0.091 C 
ATOM     25  C   UNL d   1      10.778   9.986  -7.005  0.00  0.00     0.062 C 
ATOM     26  C   UNL d   1      12.034   7.661  -4.491  0.00  0.00     0.024 C 
ATOM     27  O   UNL d   1      12.004  10.005  -4.912  0.00  0.00    -0.331 OA
ATOM     28  C   UNL d   1      11.753   6.441  -5.103  0.00  0.00     0.004 C 
ATOM     29  C   UNL d   1      11.121   6.386  -6.360  0.00  0.00     0.017 C 
ATOM     30  C   UNL d   1      11.278  10.822  -5.822  0.00  0.00     0.154 C 
ENDBRANCH   4  22
TORSDOF 7
