REMARK  7 active torsions:
REMARK  status: ('A' for Active; 'I' for Inactive)
REMARK    1  A    between atoms: N_12  and  C_13 
REMARK    2  A    between atoms: C_13  and  C_14 
REMARK    3  A    between atoms: C_14  and  C_15 
REMARK    4  A    between atoms: C_15  and  C_16 
REMARK    5  A    between atoms: C_16  and  C_17 
REMARK    6  A    between atoms: C_17  and  N_18 
REMARK    7  A    between atoms: N_21  and  C_22 
ROOT
ATOM      1  C   UNL d   1      10.052   8.012 -10.383  0.00  0.00     0.004 C 
ENDROOT
BRANCH   1   2
ATOM      2  C   UNL d   1      10.421   7.644  -8.955  0.00  0.00     0.025 C 
BRANCH   2   3
ATOM      3  C   UNL d   1      10.823   8.875  -8.124  0.00  0.00     0.122 C 
BRANCH   3   4
ATOM      4  N   UNL d   1      11.282   8.518  -6.764  0.00  0.00    -0.221 N 
ATOM      5  C   UNL d   1      11.705   9.472  -5.827  0.00  0.00     0.271 C 
ATOM      6  O   UNL d   1      11.847  10.662  -6.064  0.00  0.00    -0.266 OA
ATOM      7  C   UNL d   1      11.921   8.793  -4.499  0.00  0.00     0.069 A 
ATOM      8  C   UNL d   1      11.525   7.462  -4.475  0.00  0.00     0.108 A 
ATOM      9  C   UNL d   1      12.488   9.338  -3.334  0.00  0.00     0.005 A 
ATOM     10  C   UNL d   1      11.710   6.635  -3.360  0.00  0.00     0.013 A 
ATOM     11  S   UNL d   1      10.941   6.983  -6.061  0.00  0.00     0.270 S 
ATOM     12  C   UNL d   1      12.262   7.188  -2.194  0.00  0.00     0.001 A 
ATOM     13  C   UNL d   1      12.647   8.545  -2.184  0.00  0.00     0.000 A 
ATOM     14  O   UNL d   1      11.846   6.005  -6.660  0.00  0.00    -0.200 OA
ATOM     15  O   UNL d   1       9.480   6.791  -6.053  0.00  0.00    -0.200 OA
ENDBRANCH   3   4
ENDBRANCH   2   3
ENDBRANCH   1   2
BRANCH   1  16
ATOM     16  C   UNL d   1       9.063   7.005 -11.016  0.00  0.00     0.035 C 
BRANCH  16  17
ATOM     17  C   UNL d   1       9.649   5.696 -11.552  0.00  0.00     0.250 C 
BRANCH  17  18
ATOM     18  N   UNL d   1       8.833   5.171 -12.637  0.00  0.00     0.141 N 
ATOM     19  C   UNL d   1       9.537   4.039 -13.243  0.00  0.00     0.275 C 
ATOM     20  C   UNL d   1       8.745   3.492 -14.445  0.00  0.00     0.155 C 
ATOM     21  N   UNL d   1       7.405   3.101 -14.026  0.00  0.00    -0.179 N 
ATOM     22  C   UNL d   1       6.688   4.148 -13.308  0.00  0.00     0.155 C 
ATOM     23  C   UNL d   1       7.530   4.701 -12.149  0.00  0.00     0.275 C 
BRANCH  21  24
ATOM     24  C   UNL d   1       6.844   1.857 -14.279  0.00  0.00     0.727 A 
ATOM     25  N   UNL d   1       7.356   1.140 -15.280  0.00  0.00    -0.060 NA
ATOM     26  C   UNL d   1       6.806  -0.071 -15.502  0.00  0.00     0.120 A 
ATOM     27  C   UNL d   1       5.756  -0.570 -14.710  0.00  0.00     0.043 A 
ATOM     28  C   UNL d   1       5.299   0.275 -13.691  0.00  0.00     0.120 A 
ATOM     29  N   UNL d   1       5.840   1.484 -13.485  0.00  0.00    -0.060 NA
ENDBRANCH  21  24
ENDBRANCH  17  18
ENDBRANCH  16  17
ENDBRANCH   1  16
TORSDOF 7
