REMARK  7 active torsions:
REMARK  status: ('A' for Active; 'I' for Inactive)
REMARK       I    between atoms: C_2  and  N_3 
REMARK    1  A    between atoms: C_2  and  C_22 
REMARK    2  A    between atoms: N_3  and  C_4 
REMARK    3  A    between atoms: C_4  and  C_5 
REMARK    4  A    between atoms: C_5  and  C_6 
REMARK    5  A    between atoms: C_6  and  C_7 
REMARK    6  A    between atoms: C_7  and  N_8 
REMARK    7  A    between atoms: N_11  and  C_12 
ROOT
ATOM      1  N   UNL d   1       8.798   4.926 -12.284  0.00  0.00     0.141 N 
ATOM      2  C   UNL d   1       7.450   4.469 -11.945  0.00  0.00     0.274 C 
ATOM      3  C   UNL d   1       6.673   4.122 -13.222  0.00  0.00     0.137 C 
ATOM      4  N   UNL d   1       7.397   3.180 -14.052  0.00  0.00    -0.344 N 
ATOM      5  C   UNL d   1       8.785   3.506 -14.316  0.00  0.00     0.137 C 
ATOM      6  C   UNL d   1       9.514   3.865 -13.013  0.00  0.00     0.274 C 
ENDROOT
BRANCH   1   7
ATOM      7  C   UNL d   1       9.566   5.247 -11.091  0.00  0.00     0.251 C 
BRANCH   7   8
ATOM      8  C   UNL d   1       8.879   6.210 -10.120  0.00  0.00     0.037 C 
BRANCH   8   9
ATOM      9  C   UNL d   1       9.721   6.492  -8.874  0.00  0.00     0.029 C 
BRANCH   9  10
ATOM     10  C   UNL d   1       8.933   7.347  -7.876  0.00  0.00     0.129 C 
BRANCH  10  11
ATOM     11  N   UNL d   1       9.656   7.516  -6.632  0.00  0.00    -0.233 NA
ATOM     12  C   UNL d   1      10.654   8.385  -6.453  0.00  0.00     0.293 C 
ATOM     13  O   UNL d   1      11.050   9.181  -7.302  0.00  0.00    -0.264 OA
BRANCH  12  14
ATOM     14  C   UNL d   1      11.221   8.385  -5.067  0.00  0.00     0.141 A 
ATOM     15  N   UNL d   1      11.638   7.204  -4.556  0.00  0.00    -0.213 NA
ATOM     16  C   UNL d   1      12.190   7.201  -3.325  0.00  0.00     0.223 A 
ATOM     17  C   UNL d   1      12.310   8.367  -2.547  0.00  0.00     0.050 A 
ATOM     18  F   UNL d   1      12.657   6.039  -2.817  0.00  0.00    -0.183 F 
ATOM     19  C   UNL d   1      11.860   9.583  -3.074  0.00  0.00     0.006 A 
ATOM     20  C   UNL d   1      11.317   9.600  -4.370  0.00  0.00     0.024 A 
ENDBRANCH  12  14
ENDBRANCH  10  11
ENDBRANCH   9  10
ENDBRANCH   8   9
ENDBRANCH   7   8
ENDBRANCH   1   7
BRANCH   4  21
ATOM     21  C   UNL d   1       6.781   1.970 -14.524  0.00  0.00     0.068 A 
ATOM     22  C   UNL d   1       7.018   1.436 -15.814  0.00  0.00     0.084 A 
ATOM     23  C   UNL d   1       6.356   0.251 -16.219  0.00  0.00     0.070 A 
ATOM     24 CL   UNL d   1       8.033   2.214 -16.991  0.00  0.00    -0.080 Cl
ATOM     25  C   UNL d   1       5.477  -0.402 -15.342  0.00  0.00     0.012 A 
ATOM     26 CL   UNL d   1       6.585  -0.404 -17.804  0.00  0.00    -0.081 Cl
ATOM     27  C   UNL d   1       5.236   0.126 -14.065  0.00  0.00     0.002 A 
ATOM     28  C   UNL d   1       5.885   1.306 -13.662  0.00  0.00     0.018 A 
ENDBRANCH   4  21
TORSDOF 7
