REMARK  2 active torsions:
REMARK  status: ('A' for Active; 'I' for Inactive)
REMARK    1  A    between atoms: N_5  and  C_6 
REMARK    2  A    between atoms: C_18  and  C_19 
ROOT
ATOM      1  C   UNL d   1       9.726   4.280 -18.244  0.00  0.00     0.246 C 
ATOM      2  C   UNL d   1       9.697   3.422 -19.544  0.00  0.00     0.065 C 
ATOM      3  C   UNL d   1       9.074   2.050 -19.412  0.00  0.00    -0.014 A 
ATOM      4  C   UNL d   1       7.848   1.789 -20.039  0.00  0.00    -0.004 A 
ATOM      5  C   UNL d   1       7.302   0.496 -19.972  0.00  0.00    -0.000 A 
ATOM      6  C   UNL d   1       7.995  -0.527 -19.291  0.00  0.00     0.001 A 
ATOM      7  C   UNL d   1       9.237  -0.260 -18.679  0.00  0.00     0.006 A 
ATOM      8  C   UNL d   1       9.771   1.037 -18.747  0.00  0.00     0.025 A 
ATOM      9  S   UNL d   1      11.313   1.411 -17.990  0.00  0.00    -0.087 SA
ATOM     10  C   UNL d   1      10.690   2.391 -16.666  0.00  0.00     0.027 A 
ATOM     11  C   UNL d   1      10.907   1.911 -15.364  0.00  0.00     0.006 A 
ATOM     12  C   UNL d   1      10.438   2.625 -14.246  0.00  0.00     0.002 A 
ATOM     13  C   UNL d   1       9.728   3.824 -14.415  0.00  0.00     0.019 A 
ATOM     14  C   UNL d   1       9.516   4.309 -15.726  0.00  0.00    -0.000 A 
ATOM     15  C   UNL d   1       9.977   3.608 -16.877  0.00  0.00     0.015 A 
ENDROOT
BRANCH   1  16
ATOM     16  N   UNL d   1      10.566   5.490 -18.372  0.00  0.00     0.144 N 
ATOM     17  C   UNL d   1      10.218   6.309 -19.546  0.00  0.00     0.286 C 
ATOM     18  C   UNL d   1      11.088   7.573 -19.655  0.00  0.00     0.286 C 
ATOM     19  N   UNL d   1      12.503   7.226 -19.682  0.00  0.00     0.143 N 
ATOM     20  C   UNL d   1      13.336   8.409 -19.803  0.00  0.00     0.285 C 
ATOM     21  C   UNL d   1      12.847   6.464 -18.483  0.00  0.00     0.286 C 
ATOM     22  C   UNL d   1      11.995   5.193 -18.384  0.00  0.00     0.286 C 
ENDBRANCH   1  16
BRANCH  13  23
ATOM     23  C   UNL d   1       9.220   4.569 -13.251  0.00  0.00     0.102 A 
ATOM     24  N   UNL d   1       9.600   4.237 -12.021  0.00  0.00    -0.169 NA
ATOM     25  N   UNL d   1       8.982   5.106 -11.196  0.00  0.00    -0.248 N 
ATOM     26  C   UNL d   1       8.198   5.993 -11.896  0.00  0.00     0.097 A 
ATOM     27  C   UNL d   1       9.196   5.024  -9.769  0.00  0.00     0.154 C 
ATOM     28  C   UNL d   1       8.332   5.688 -13.223  0.00  0.00     0.041 A 
ENDBRANCH  13  23
TORSDOF 2
