REMARK  8 active torsions:
REMARK  status: ('A' for Active; 'I' for Inactive)
REMARK    1  A    between atoms: C_2  and  C_3 
REMARK    2  A    between atoms: C_8  and  N_9 
REMARK    3  A    between atoms: N_12  and  C_13 
REMARK    4  A    between atoms: C_13  and  C_14 
REMARK    5  A    between atoms: C_14  and  C_16 
REMARK    6  A    between atoms: C_16  and  C_17 
REMARK    7  A    between atoms: C_17  and  N_18 
REMARK       I    between atoms: N_18  and  C_19 
REMARK    8  A    between atoms: C_19  and  C_21 
ROOT
ATOM      1  N   UNL d   1      10.181   6.467  -9.551  0.00  0.00    -0.344 N 
ATOM      2  C   UNL d   1       9.480   5.244  -9.173  0.00  0.00     0.137 C 
ATOM      3  C   UNL d   1       8.079   5.228  -9.823  0.00  0.00     0.274 C 
ATOM      4  N   UNL d   1       8.129   5.456 -11.280  0.00  0.00     0.144 N 
ATOM      5  C   UNL d   1       8.775   6.737 -11.573  0.00  0.00     0.274 C 
ATOM      6  C   UNL d   1      10.160   6.775 -10.972  0.00  0.00     0.137 C 
ENDROOT
BRANCH   4   7
ATOM      7  C   UNL d   1       6.816   5.408 -11.911  0.00  0.00     0.283 C 
BRANCH   7   8
ATOM      8  C   UNL d   1       6.426   3.988 -12.365  0.00  0.00     0.188 C 
ATOM      9  O   UNL d   1       5.109   4.033 -12.851  0.00  0.00    -0.221 OA
BRANCH   8  10
ATOM     10  C   UNL d   1       7.289   3.433 -13.529  0.00  0.00     0.061 C 
BRANCH  10  11
ATOM     11  C   UNL d   1       8.814   3.567 -13.346  0.00  0.00     0.132 C 
BRANCH  11  12
ATOM     12  N   UNL d   1       9.585   2.914 -14.390  0.00  0.00    -0.233 NA
ATOM     13  C   UNL d   1      10.737   3.402 -14.880  0.00  0.00     0.293 C 
ATOM     14  O   UNL d   1      11.293   4.419 -14.454  0.00  0.00    -0.264 OA
BRANCH  13  15
ATOM     15  C   UNL d   1      11.278   2.650 -16.013  0.00  0.00     0.139 A 
ATOM     16  N   UNL d   1      12.259   3.231 -16.794  0.00  0.00    -0.241 NA
ATOM     17  C   UNL d   1      12.644   2.377 -17.808  0.00  0.00     0.082 A 
ATOM     18  C   UNL d   1      11.853   1.203 -17.640  0.00  0.00     0.019 A 
ATOM     19  C   UNL d   1      13.591   2.494 -18.839  0.00  0.00     0.019 A 
ATOM     20  C   UNL d   1      10.999   1.400 -16.504  0.00  0.00     0.025 A 
ATOM     21  C   UNL d   1      12.056   0.144 -18.555  0.00  0.00     0.002 A 
ATOM     22  C   UNL d   1      13.006   0.250 -19.590  0.00  0.00     0.000 A 
ATOM     23  C   UNL d   1      13.772   1.423 -19.735  0.00  0.00     0.002 A 
ENDBRANCH  13  15
ENDBRANCH  11  12
ENDBRANCH  10  11
ENDBRANCH   8  10
ENDBRANCH   7   8
ENDBRANCH   4   7
BRANCH   1  24
ATOM     24  C   UNL d   1      10.770   7.331  -8.608  0.00  0.00     0.054 A 
ATOM     25  C   UNL d   1      12.025   7.978  -8.825  0.00  0.00    -0.005 A 
ATOM     26  C   UNL d   1      12.604   8.788  -7.836  0.00  0.00     0.024 A 
ATOM     27  C   UNL d   1      11.900   9.008  -6.663  0.00  0.00     0.119 A 
ATOM     28  O   UNL d   1      12.257   9.758  -5.609  0.00  0.00    -0.300 OA
ATOM     29  C   UNL d   1      10.688   8.383  -6.441  0.00  0.00     0.120 A 
ATOM     30  C   UNL d   1      11.223   9.576  -4.675  0.00  0.00     0.304 A 
ATOM     31  O   UNL d   1      10.259   8.742  -5.228  0.00  0.00    -0.299 OA
ATOM     32  C   UNL d   1      10.106   7.532  -7.387  0.00  0.00     0.043 A 
BRANCH  25  33
ATOM     33  C   UNL d   1      12.854   7.786 -10.093  0.00  0.00     0.028 C 
ATOM     34  C   UNL d   1      14.379   7.756  -9.944  0.00  0.00     0.005 C 
ENDBRANCH  25  33
ENDBRANCH   1  24
TORSDOF 8
