REMARK  9 active torsions:
REMARK  status: ('A' for Active; 'I' for Inactive)
REMARK    1  A    between atoms: C_2  and  C_3 
REMARK    2  A    between atoms: C_2  and  C_28 
REMARK    3  A    between atoms: C_3  and  C_4 
REMARK    4  A    between atoms: C_4  and  C_5 
REMARK    5  A    between atoms: C_5  and  C_6 
REMARK    6  A    between atoms: C_6  and  N_7 
REMARK    7  A    between atoms: N_10  and  C_11 
REMARK    8  A    between atoms: C_11  and  C_12 
REMARK    9  A    between atoms: C_11  and  C_19 
ROOT
ATOM      1  N   UNL d   1       9.706   5.010 -12.264  0.00  0.00     0.141 N 
ATOM      2  C   UNL d   1       9.755   3.606 -12.599  0.00  0.00     0.285 C 
ATOM      3  C   UNL d   1      10.349   3.343 -14.005  0.00  0.00     0.286 C 
ATOM      4  N   UNL d   1       9.400   3.909 -14.987  0.00  0.00     0.147 N 
ATOM      5  C   UNL d   1       9.257   5.325 -14.672  0.00  0.00     0.286 C 
ATOM      6  C   UNL d   1       8.803   5.631 -13.226  0.00  0.00     0.285 C 
ENDROOT
BRANCH   1   7
ATOM      7  C   UNL d   1       9.285   5.186 -10.883  0.00  0.00     0.250 C 
BRANCH   7   8
ATOM      8  C   UNL d   1       9.527   6.609 -10.351  0.00  0.00     0.036 C 
BRANCH   8   9
ATOM      9  C   UNL d   1       9.056   6.757  -8.904  0.00  0.00     0.010 C 
BRANCH   9  10
ATOM     10  C   UNL d   1       9.074   8.211  -8.401  0.00  0.00     0.071 C 
BRANCH  10  11
ATOM     11  C   UNL d   1      10.455   8.697  -7.996  0.00  0.00     0.197 C 
ATOM     12  O   UNL d   1      11.182   9.265  -8.807  0.00  0.00    -0.289 OA
BRANCH  11  13
ATOM     13  C   UNL d   1      10.872   8.491  -6.589  0.00  0.00     0.145 A 
ATOM     14  S   UNL d   1      11.049   6.826  -6.025  0.00  0.00    -0.064 SA
ATOM     15  C   UNL d   1      11.541   7.452  -4.468  0.00  0.00     0.049 A 
ATOM     16  C   UNL d   1      11.524   8.876  -4.488  0.00  0.00     0.088 A 
ATOM     17  C   UNL d   1      11.915   6.735  -3.316  0.00  0.00     0.008 A 
ATOM     18  N   UNL d   1      11.150   9.455  -5.699  0.00  0.00    -0.236 NA
ATOM     19  C   UNL d   1      11.873   9.537  -3.288  0.00  0.00     0.020 A 
ATOM     20  C   UNL d   1      12.264   8.823  -2.140  0.00  0.00     0.002 A 
ATOM     21  C   UNL d   1      12.281   7.421  -2.152  0.00  0.00     0.001 A 
ENDBRANCH  11  13
ENDBRANCH  10  11
ENDBRANCH   9  10
ENDBRANCH   8   9
ENDBRANCH   7   8
ENDBRANCH   1   7
BRANCH   4  22
ATOM     22  C   UNL d   1       9.755   3.713 -16.412  0.00  0.00     0.264 C 
BRANCH  22  23
ATOM     23  C   UNL d   1       9.700   2.242 -16.877  0.00  0.00     0.013 C 
ATOM     24  C   UNL d   1       9.866   1.958 -18.260  0.00  0.00     0.000 C 
ATOM     25  C   UNL d   1       9.848   0.613 -18.716  0.00  0.00     0.029 C 
ATOM     26  C   UNL d   1       9.725  -0.451 -17.787  0.00  0.00     0.140 C 
ATOM     27  C   UNL d   1       9.560  -0.159 -16.429  0.00  0.00     0.029 C 
ATOM     28  F   UNL d   1       9.691  -1.733 -18.225  0.00  0.00    -0.204 F 
ATOM     29  C   UNL d   1       9.451   1.174 -15.978  0.00  0.00     0.000 C 
ENDBRANCH  22  23
BRANCH  22  30
ATOM     30  C   UNL d   1      11.030   4.467 -16.830  0.00  0.00     0.013 A 
ATOM     31  C   UNL d   1      12.313   3.959 -16.524  0.00  0.00     0.000 A 
ATOM     32  C   UNL d   1      13.471   4.695 -16.847  0.00  0.00     0.029 A 
ATOM     33  C   UNL d   1      13.372   5.943 -17.487  0.00  0.00     0.140 A 
ATOM     34  C   UNL d   1      12.104   6.467 -17.795  0.00  0.00     0.029 A 
ATOM     35  F   UNL d   1      14.493   6.632 -17.809  0.00  0.00    -0.204 F 
ATOM     36  C   UNL d   1      10.940   5.730 -17.465  0.00  0.00     0.000 A 
ENDBRANCH  22  30
ENDBRANCH   4  22
TORSDOF 9
