REMARK  7 active torsions:
REMARK  status: ('A' for Active; 'I' for Inactive)
REMARK    1  A    between atoms: C_2  and  C_3 
REMARK    2  A    between atoms: C_3  and  N_4 
REMARK    3  A    between atoms: N_4  and  C_5 
REMARK    4  A    between atoms: N_4  and  C_8 
REMARK    5  A    between atoms: C_5  and  C_6 
REMARK    6  A    between atoms: C_16  and  C_17 
REMARK    7  A    between atoms: C_20  and  O_21 
ROOT
ATOM      1  C   UNL d   1      10.318   3.985 -13.810  0.00  0.00     0.253 C 
ATOM      2  C   UNL d   1      10.550   5.214 -14.705  0.00  0.00     0.182 C 
ATOM      3  O   UNL d   1      11.761   5.095 -15.435  0.00  0.00    -0.329 OA
ATOM      4  C   UNL d   1      11.924   3.936 -16.164  0.00  0.00     0.090 A 
ATOM      5  C   UNL d   1      11.227   2.749 -15.833  0.00  0.00     0.002 A 
ATOM      6  C   UNL d   1      11.414   1.591 -16.613  0.00  0.00    -0.002 A 
ATOM      7  C   UNL d   1      12.283   1.609 -17.711  0.00  0.00    -0.000 A 
ATOM      8  C   UNL d   1      12.991   2.777 -18.039  0.00  0.00     0.002 A 
ATOM      9  C   UNL d   1      12.810   3.961 -17.268  0.00  0.00     0.022 A 
ATOM     10  C   UNL d   1      10.234   2.718 -14.687  0.00  0.00     0.064 C 
ENDROOT
BRANCH   9  11
ATOM     11  C   UNL d   1      13.528   5.181 -17.640  0.00  0.00     0.002 A 
ATOM     12  C   UNL d   1      14.931   5.205 -17.821  0.00  0.00     0.002 A 
ATOM     13  C   UNL d   1      15.591   6.400 -18.149  0.00  0.00     0.024 A 
ATOM     14  C   UNL d   1      14.879   7.601 -18.299  0.00  0.00     0.094 A 
ATOM     15  C   UNL d   1      13.464   7.586 -18.123  0.00  0.00     0.024 A 
ATOM     16  C   UNL d   1      12.811   6.387 -17.806  0.00  0.00     0.002 A 
BRANCH  14  17
ATOM     17  O   UNL d   1      15.563   8.763 -18.610  0.00  0.00    -0.328 OA
ATOM     18  C   UNL d   1      14.802   9.958 -18.710  0.00  0.00     0.181 C 
ENDBRANCH  14  17
ENDBRANCH   9  11
BRANCH   1  19
ATOM     19  N   UNL d   1       9.188   4.151 -12.867  0.00  0.00     0.138 N 
BRANCH  19  20
ATOM     20  C   UNL d   1       7.892   4.120 -13.586  0.00  0.00     0.250 C 
BRANCH  20  21
ATOM     21  C   UNL d   1       6.681   4.220 -12.647  0.00  0.00     0.035 C 
ATOM     22  C   UNL d   1       5.356   3.892 -13.281  0.00  0.00     0.002 C 
ENDBRANCH  20  21
ENDBRANCH  19  20
BRANCH  19  23
ATOM     23  C   UNL d   1       9.329   5.342 -12.037  0.00  0.00     0.250 C 
BRANCH  23  24
ATOM     24  C   UNL d   1       8.590   5.278 -10.666  0.00  0.00     0.035 C 
ATOM     25  C   UNL d   1       9.515   4.835  -9.533  0.00  0.00     0.002 C 
ENDBRANCH  23  24
ENDBRANCH  19  23
ENDBRANCH   1  19
TORSDOF 7
