REMARK  7 active torsions:
REMARK  status: ('A' for Active; 'I' for Inactive)
REMARK    1  A    between atoms: C_6  and  N_7 
REMARK    2  A    between atoms: N_10  and  C_11 
REMARK    3  A    between atoms: C_11  and  C_12 
REMARK    4  A    between atoms: C_12  and  C_13 
REMARK    5  A    between atoms: C_13  and  C_14 
REMARK    6  A    between atoms: C_14  and  N_15 
REMARK    7  A    between atoms: C_17  and  C_18 
ROOT
ATOM      1  C   UNL d   1       9.568   5.196 -11.728  0.00  0.00     0.029 C 
ENDROOT
BRANCH   1   2
ATOM      2  C   UNL d   1       8.757   4.307 -12.661  0.00  0.00     0.037 C 
BRANCH   2   3
ATOM      3  C   UNL d   1       9.603   3.497 -13.672  0.00  0.00     0.251 C 
BRANCH   3   4
ATOM      4  N   UNL d   1       8.950   2.269 -14.128  0.00  0.00     0.141 N 
ATOM      5  C   UNL d   1       7.505   2.436 -14.339  0.00  0.00     0.274 C 
ATOM      6  C   UNL d   1       6.864   1.119 -14.757  0.00  0.00     0.137 C 
ATOM      7  N   UNL d   1       7.505   0.606 -15.954  0.00  0.00    -0.344 N 
ATOM      8  C   UNL d   1       8.959   0.485 -15.867  0.00  0.00     0.137 C 
ATOM      9  C   UNL d   1       9.586   1.809 -15.375  0.00  0.00     0.274 C 
BRANCH   7  10
ATOM     10  C   UNL d   1       6.771   0.266 -17.090  0.00  0.00     0.068 A 
ATOM     11  C   UNL d   1       7.217   0.728 -18.353  0.00  0.00     0.018 A 
ATOM     12  C   UNL d   1       6.503   0.422 -19.527  0.00  0.00     0.002 A 
ATOM     13  C   UNL d   1       5.334  -0.349 -19.453  0.00  0.00     0.012 A 
ATOM     14  C   UNL d   1       4.877  -0.817 -18.215  0.00  0.00     0.070 A 
ATOM     15 CL   UNL d   1       3.467  -1.794 -18.175  0.00  0.00    -0.081 Cl
ATOM     16  C   UNL d   1       5.580  -0.523 -17.030  0.00  0.00     0.084 A 
ATOM     17 CL   UNL d   1       4.994  -1.194 -15.536  0.00  0.00    -0.080 Cl
ENDBRANCH   7  10
ENDBRANCH   3   4
ENDBRANCH   2   3
ENDBRANCH   1   2
BRANCH   1  18
ATOM     18  C   UNL d   1       8.684   6.090 -10.849  0.00  0.00     0.129 C 
BRANCH  18  19
ATOM     19  N   UNL d   1       9.463   6.866  -9.911  0.00  0.00    -0.231 N 
ATOM     20  N   UNL d   1      10.265   7.856 -10.366  0.00  0.00    -0.064 NA
ATOM     21  N   UNL d   1      10.822   8.398  -9.329  0.00  0.00    -0.129 NA
ATOM     22  C   UNL d   1      10.357   7.776  -8.167  0.00  0.00     0.123 A 
ATOM     23  C   UNL d   1       9.472   6.799  -8.536  0.00  0.00     0.118 A 
BRANCH  22  24
ATOM     24  C   UNL d   1      10.807   8.189  -6.845  0.00  0.00     0.021 A 
ATOM     25  C   UNL d   1      11.088   7.221  -5.867  0.00  0.00     0.002 A 
ATOM     26  C   UNL d   1      11.532   7.609  -4.592  0.00  0.00     0.000 A 
ATOM     27  C   UNL d   1      11.663   8.986  -4.276  0.00  0.00     0.000 A 
ATOM     28  C   UNL d   1      11.858   6.640  -3.631  0.00  0.00     0.000 A 
ATOM     29  C   UNL d   1      11.360   9.960  -5.245  0.00  0.00     0.000 A 
ATOM     30  C   UNL d   1      12.096   9.372  -2.993  0.00  0.00     0.000 A 
ATOM     31  C   UNL d   1      10.948   9.554  -6.521  0.00  0.00     0.002 A 
ATOM     32  C   UNL d   1      12.408   8.391  -2.034  0.00  0.00     0.000 A 
ATOM     33  C   UNL d   1      12.276   7.026  -2.354  0.00  0.00     0.000 A 
ENDBRANCH  22  24
ENDBRANCH  18  19
ENDBRANCH   1  18
TORSDOF 7
