REMARK  5 active torsions:
REMARK  status: ('A' for Active; 'I' for Inactive)
REMARK    1  A    between atoms: N_10  and  C_11 
REMARK    2  A    between atoms: C_11  and  C_12 
REMARK    3  A    between atoms: C_12  and  C_13 
REMARK    4  A    between atoms: C_16  and  N_17 
REMARK       I    between atoms: N_17  and  C_18 
REMARK    5  A    between atoms: C_18  and  C_20 
ROOT
ATOM      1  N   UNL d   1       9.171   8.211 -21.506  0.00  0.00    -0.191 NA
ATOM      2  C   UNL d   1       9.673   7.635 -20.634  0.00  0.00     0.101 C 
ATOM      3  C   UNL d   1      10.304   6.915 -19.538  0.00  0.00     0.068 A 
ATOM      4  C   UNL d   1      11.487   7.408 -18.953  0.00  0.00     0.010 A 
ATOM      5  C   UNL d   1      12.102   6.712 -17.889  0.00  0.00    -0.004 A 
ATOM      6  C   UNL d   1      11.551   5.517 -17.421  0.00  0.00    -0.022 A 
ATOM      7  C   UNL d   1      10.350   5.022 -17.985  0.00  0.00     0.008 A 
ATOM      8  C   UNL d   1       9.729   5.726 -19.049  0.00  0.00     0.008 A 
ATOM      9  C   UNL d   1       9.723   3.727 -17.476  0.00  0.00     0.276 C 
ATOM     10  N   UNL d   1      10.133   3.374 -16.113  0.00  0.00     0.142 N 
ATOM     11  C   UNL d   1      11.602   3.369 -16.053  0.00  0.00     0.255 C 
ATOM     12  C   UNL d   1      12.211   4.787 -16.251  0.00  0.00     0.061 C 
ENDROOT
BRANCH  10  13
ATOM     13  C   UNL d   1       9.557   4.285 -15.134  0.00  0.00     0.251 C 
BRANCH  13  14
ATOM     14  C   UNL d   1       8.414   3.676 -14.306  0.00  0.00     0.035 C 
BRANCH  14  15
ATOM     15  C   UNL d   1       8.353   4.372 -12.921  0.00  0.00     0.002 C 
ATOM     16  C   UNL d   1       8.313   5.918 -12.995  0.00  0.00     0.002 C 
ATOM     17  C   UNL d   1       8.238   6.567 -11.617  0.00  0.00     0.024 C 
ATOM     18  C   UNL d   1       9.408   6.090 -10.737  0.00  0.00     0.107 C 
ATOM     19  C   UNL d   1       9.383   4.549 -10.606  0.00  0.00     0.024 C 
ATOM     20  C   UNL d   1       9.513   3.919 -12.009  0.00  0.00     0.002 C 
BRANCH  18  21
ATOM     21  N   UNL d   1       9.379   6.655  -9.402  0.00  0.00    -0.235 NA
ATOM     22  C   UNL d   1       9.928   7.818  -9.029  0.00  0.00     0.292 C 
ATOM     23  O   UNL d   1      10.172   8.752  -9.795  0.00  0.00    -0.264 OA
BRANCH  22  24
ATOM     24  C   UNL d   1      10.304   7.886  -7.615  0.00  0.00     0.139 A 
ATOM     25  N   UNL d   1      10.443   9.120  -7.005  0.00  0.00    -0.241 NA
ATOM     26  C   UNL d   1      10.919   8.967  -5.715  0.00  0.00     0.082 A 
ATOM     27  C   UNL d   1      11.090   7.563  -5.529  0.00  0.00     0.019 A 
ATOM     28  C   UNL d   1      11.214   9.889  -4.705  0.00  0.00     0.019 A 
ATOM     29  C   UNL d   1      10.702   6.908  -6.742  0.00  0.00     0.025 A 
ATOM     30  C   UNL d   1      11.591   7.125  -4.280  0.00  0.00     0.002 A 
ATOM     31  C   UNL d   1      11.878   8.046  -3.254  0.00  0.00     0.000 A 
ATOM     32  C   UNL d   1      11.692   9.427  -3.464  0.00  0.00     0.002 A 
ENDBRANCH  22  24
ENDBRANCH  18  21
ENDBRANCH  14  15
ENDBRANCH  13  14
ENDBRANCH  10  13
TORSDOF 5
