REMARK  3 active torsions:
REMARK  status: ('A' for Active; 'I' for Inactive)
REMARK    1  A    between atoms: C_4  and  C_5 
REMARK    2  A    between atoms: C_5  and  N_6 
REMARK       I    between atoms: N_9  and  C_10 
REMARK    3  A    between atoms: C_10  and  C_12 
ROOT
ATOM      1  N   UNL d   1       8.002   4.532 -12.818  0.00  0.00     0.141 N 
ATOM      2  C   UNL d   1       7.794   4.673 -11.368  0.00  0.00     0.274 C 
ATOM      3  C   UNL d   1       9.081   5.177 -10.663  0.00  0.00     0.140 C 
ATOM      4  N   UNL d   1       9.419   6.500 -11.252  0.00  0.00    -0.312 N 
ATOM      5  C   UNL d   1       9.654   7.654 -10.577  0.00  0.00     0.257 C 
ATOM      6  O   UNL d   1       9.737   8.758 -11.124  0.00  0.00    -0.267 OA
ATOM      7  C   UNL d   1       9.491   6.497 -12.743  0.00  0.00     0.140 C 
ATOM      8  C   UNL d   1       8.231   5.873 -13.370  0.00  0.00     0.274 C 
ENDROOT
BRANCH   1   9
ATOM      9  C   UNL d   1       9.072   3.566 -13.094  0.00  0.00     0.251 C 
BRANCH   9  10
ATOM     10  C   UNL d   1       8.927   2.884 -14.454  0.00  0.00     0.048 C 
ATOM     11  C   UNL d   1       9.513   3.789 -15.579  0.00  0.00     0.072 C 
ATOM     12  C   UNL d   1       9.484   3.127 -16.956  0.00  0.00     0.175 C 
ATOM     13  O   UNL d   1       9.267   3.782 -17.977  0.00  0.00    -0.291 OA
ATOM     14  C   UNL d   1       9.716   1.676 -16.977  0.00  0.00     0.055 A 
ATOM     15  C   UNL d   1       9.762   0.978 -15.800  0.00  0.00     0.081 A 
ATOM     16  C   UNL d   1       9.890   0.732 -18.009  0.00  0.00     0.031 A 
ATOM     17  C   UNL d   1       9.587   1.484 -14.418  0.00  0.00     0.054 C 
ATOM     18  O   UNL d   1      10.016  -0.338 -16.026  0.00  0.00    -0.309 OA
ATOM     19  C   UNL d   1      10.085  -0.469 -17.380  0.00  0.00     0.122 A 
ENDBRANCH   9  10
ENDBRANCH   1   9
BRANCH   5  20
ATOM     20  C   UNL d   1       9.938   7.587  -9.101  0.00  0.00     0.056 A 
ATOM     21  C   UNL d   1      11.108   8.181  -8.579  0.00  0.00     0.007 A 
ATOM     22  C   UNL d   1      11.394   8.088  -7.205  0.00  0.00     0.030 A 
ATOM     23  C   UNL d   1      10.534   7.399  -6.338  0.00  0.00     0.140 A 
ATOM     24  C   UNL d   1       9.346   6.822  -6.849  0.00  0.00     0.030 A 
ATOM     25  F   UNL d   1      10.842   7.282  -5.024  0.00  0.00    -0.204 F 
ATOM     26  C   UNL d   1       9.052   6.953  -8.211  0.00  0.00     0.007 A 
ENDBRANCH   5  20
TORSDOF 3
