REMARK  10 active torsions:
REMARK  status: ('A' for Active; 'I' for Inactive)
REMARK    1  A    between atoms: O_2  and  C_3 
REMARK    2  A    between atoms: C_9  and  C_10 
REMARK    3  A    between atoms: C_12  and  C_13 
REMARK    4  A    between atoms: C_13  and  N_14 
REMARK    5  A    between atoms: N_14  and  C_15 
REMARK    6  A    between atoms: C_15  and  C_16 
REMARK    7  A    between atoms: C_16  and  C_17 
REMARK    8  A    between atoms: C_17  and  C_18 
REMARK    9  A    between atoms: C_18  and  O_19 
REMARK   10  A    between atoms: O_19  and  C_20 
ROOT
ATOM      1  C   UNL d   1       9.167   5.087 -10.636  0.00  0.00     0.290 C 
ENDROOT
BRANCH   1   2
ATOM      2  N   UNL d   1       9.523   6.194  -9.789  0.00  0.00     0.339 N 
BRANCH   2   3
ATOM      3  C   UNL d   1       8.776   6.096  -8.544  0.00  0.00     0.290 C 
BRANCH   3   4
ATOM      4  C   UNL d   1       9.155   7.279  -7.715  0.00  0.00     0.041 A 
ATOM      5  C   UNL d   1       9.726   7.069  -6.332  0.00  0.00     0.026 A 
ATOM      6  C   UNL d   1       8.341   7.625  -6.502  0.00  0.00     0.007 A 
BRANCH   5   7
ATOM      7  C   UNL d   1      10.796   7.943  -5.830  0.00  0.00     0.002 C 
ATOM      8  C   UNL d   1      11.569   7.585  -4.680  0.00  0.00     0.090 C 
ATOM      9  C   UNL d   1      12.591   8.445  -4.228  0.00  0.00     0.026 C 
ATOM     10  C   UNL d   1      12.852   9.594  -4.934  0.00  0.00     0.032 C 
ATOM     11  C   UNL d   1      12.025  10.032  -5.958  0.00  0.00     0.140 C 
ATOM     12  F   UNL d   1      12.129  11.299  -6.412  0.00  0.00    -0.204 F 
ATOM     13  C   UNL d   1      11.022   9.198  -6.454  0.00  0.00     0.027 C 
BRANCH   8  14
ATOM     14  O   UNL d   1      11.334   6.390  -4.041  0.00  0.00    -0.328 OA
ATOM     15  C   UNL d   1      11.921   6.275  -2.758  0.00  0.00     0.181 C 
ENDBRANCH   8  14
ENDBRANCH   5   7
ENDBRANCH   3   4
ENDBRANCH   2   3
ENDBRANCH   1   2
BRANCH   1  16
ATOM     16  C   UNL d   1       7.778   5.296 -11.255  0.00  0.00     0.041 C 
BRANCH  16  17
ATOM     17  C   UNL d   1       7.282   4.017 -11.910  0.00  0.00     0.035 C 
BRANCH  17  18
ATOM     18  C   UNL d   1       5.973   4.212 -12.694  0.00  0.00     0.149 C 
BRANCH  18  19
ATOM     19  O   UNL d   1       5.450   2.947 -13.090  0.00  0.00    -0.331 OA
BRANCH  19  20
ATOM     20  C   UNL d   1       6.134   2.229 -14.057  0.00  0.00     0.096 A 
ATOM     21  C   UNL d   1       5.551   1.014 -14.499  0.00  0.00     0.043 A 
ATOM     22  C   UNL d   1       6.161   0.302 -15.551  0.00  0.00     0.082 A 
ATOM     23  C   UNL d   1       7.396   0.743 -16.068  0.00  0.00    -0.004 A 
ATOM     24  N   UNL d   1       5.510  -0.827 -16.122  0.00  0.00    -0.212 NA
ATOM     25  C   UNL d   1       7.982   1.923 -15.597  0.00  0.00    -0.001 A 
ATOM     26  C   UNL d   1       8.079  -0.063 -17.143  0.00  0.00     0.038 C 
ATOM     27  C   UNL d   1       7.330   2.680 -14.648  0.00  0.00     0.024 A 
ATOM     28  C   UNL d   1       7.061  -0.782 -18.048  0.00  0.00     0.095 C 
ATOM     29  C   UNL d   1       5.907  -1.417 -17.250  0.00  0.00     0.256 C 
ATOM     30  O   UNL d   1       5.398  -2.482 -17.655  0.00  0.00    -0.270 OA
ENDBRANCH  19  20
ENDBRANCH  18  19
ENDBRANCH  17  18
ENDBRANCH  16  17
ENDBRANCH   1  16
TORSDOF 10
