REMARK  8 active torsions:
REMARK  status: ('A' for Active; 'I' for Inactive)
REMARK    1  A    between atoms: C_5  and  C_6 
REMARK    2  A    between atoms: C_6  and  C_7 
REMARK    3  A    between atoms: C_7  and  C_9 
REMARK    4  A    between atoms: C_9  and  N_10 
REMARK       I    between atoms: N_10  and  C_11 
REMARK       I    between atoms: C_11  and  N_13 
REMARK       I    between atoms: C_14  and  N_16 
REMARK    5  A    between atoms: N_16  and  C_17 
REMARK    6  A    between atoms: C_17  and  C_18 
REMARK    7  A    between atoms: C_18  and  C_19 
REMARK    8  A    between atoms: C_19  and  C_20 
ROOT
ATOM      1  N   UNL d   1       9.758   3.276 -13.618  0.00  0.00    -0.217 NA
ATOM      2  C   UNL d   1       8.881   4.238 -13.318  0.00  0.00     0.367 C 
ATOM      3  O   UNL d   1       7.923   4.485 -14.058  0.00  0.00    -0.243 OA
ATOM      4  N   UNL d   1       9.192   4.858 -12.119  0.00  0.00    -0.159 NA
ATOM      5  C   UNL d   1       8.352   5.686 -11.565  0.00  0.00     0.237 C 
ATOM      6  N   UNL d   1       7.082   6.008 -12.011  0.00  0.00    -0.060 NA
ATOM      7  N   UNL d   1       8.661   6.378 -10.411  0.00  0.00    -0.241 NA
ENDROOT
BRANCH   1   8
ATOM      8  C   UNL d   1       9.748   2.461 -14.834  0.00  0.00     0.131 C 
BRANCH   8   9
ATOM      9  C   UNL d   1       8.869   1.186 -14.713  0.00  0.00     0.029 C 
ATOM     10  C   UNL d   1       7.374   1.509 -14.485  0.00  0.00     0.002 C 
BRANCH   9  11
ATOM     11  C   UNL d   1       9.123   0.221 -15.908  0.00  0.00     0.028 C 
BRANCH  11  12
ATOM     12  C   UNL d   1       8.161   0.383 -17.081  0.00  0.00    -0.022 A 
ATOM     13  C   UNL d   1       8.580   1.017 -18.271  0.00  0.00    -0.005 A 
ATOM     14  C   UNL d   1       7.673   1.205 -19.336  0.00  0.00    -0.005 A 
ATOM     15  C   UNL d   1       6.335   0.775 -19.208  0.00  0.00    -0.022 A 
ATOM     16  C   UNL d   1       5.345   0.971 -20.334  0.00  0.00     0.031 C 
ATOM     17  C   UNL d   1       5.916   0.139 -18.022  0.00  0.00    -0.005 A 
ATOM     18  C   UNL d   1       6.830  -0.091 -16.983  0.00  0.00    -0.005 A 
ENDBRANCH  11  12
ENDBRANCH   9  11
ENDBRANCH   8   9
ENDBRANCH   1   8
BRANCH   7  19
ATOM     19  C   UNL d   1       9.874   6.185  -9.651  0.00  0.00     0.129 C 
BRANCH  19  20
ATOM     20  C   UNL d   1       9.896   7.053  -8.396  0.00  0.00     0.032 C 
BRANCH  20  21
ATOM     21  C   UNL d   1      11.249   7.020  -7.674  0.00  0.00     0.037 C 
BRANCH  21  22
ATOM     22  C   UNL d   1      11.346   8.011  -6.565  0.00  0.00     0.029 A 
ATOM     23  S   UNL d   1      11.457   7.504  -4.898  0.00  0.00    -0.050 SA
ATOM     24  C   UNL d   1      11.529   9.197  -4.435  0.00  0.00     0.214 A 
ATOM     25  N   UNL d   1      11.456  10.044  -5.459  0.00  0.00    -0.218 NA
ATOM     26  N   UNL d   1      11.666   9.584  -3.119  0.00  0.00    -0.120 N 
ATOM     27  C   UNL d   1      11.367   9.380  -6.679  0.00  0.00     0.103 A 
ENDBRANCH  21  22
ENDBRANCH  20  21
ENDBRANCH  19  20
ENDBRANCH   7  19
TORSDOF 8
