REMARK  3 active torsions:
REMARK  status: ('A' for Active; 'I' for Inactive)
REMARK    1  A    between atoms: C_8  and  C_9 
REMARK    2  A    between atoms: C_9  and  N_10 
REMARK    3  A    between atoms: N_13  and  C_14 
ROOT
ATOM      1  N   UNL d   1       9.203   6.053 -11.479  0.00  0.00     0.147 N 
ATOM      2  C   UNL d   1       9.716   7.403 -11.296  0.00  0.00     0.275 C 
ATOM      3  C   UNL d   1      10.877   7.410 -10.274  0.00  0.00     0.137 C 
ATOM      4  N   UNL d   1      10.414   6.837  -9.018  0.00  0.00    -0.344 N 
ATOM      5  C   UNL d   1       9.770   5.519  -9.129  0.00  0.00     0.137 C 
ATOM      6  C   UNL d   1       8.659   5.577 -10.195  0.00  0.00     0.275 C 
ENDROOT
BRANCH   1   7
ATOM      7  C   UNL d   1       8.184   6.022 -12.522  0.00  0.00     0.295 C 
BRANCH   7   8
ATOM      8  C   UNL d   1       7.872   4.653 -13.046  0.00  0.00     0.091 A 
ATOM      9  C   UNL d   1       6.668   4.012 -12.985  0.00  0.00     0.075 A 
ATOM     10  N   UNL d   1       6.672   2.825 -13.686  0.00  0.00    -0.231 NA
ATOM     11  C   UNL d   1       5.407   4.479 -12.386  0.00  0.00     0.053 C 
ATOM     12  C   UNL d   1       7.921   2.674 -14.105  0.00  0.00     0.149 A 
ATOM     13  C   UNL d   1       8.518   1.609 -14.819  0.00  0.00     0.052 A 
ATOM     14  N   UNL d   1       8.731   3.786 -13.742  0.00  0.00    -0.281 N 
ATOM     15  C   UNL d   1       9.844   1.730 -15.126  0.00  0.00     0.064 A 
ATOM     16  C   UNL d   1      10.576   0.660 -15.884  0.00  0.00     0.052 C 
ATOM     17  N   UNL d   1      10.611   2.807 -14.791  0.00  0.00    -0.236 NA
ATOM     18  C   UNL d   1      10.057   3.779 -14.137  0.00  0.00     0.125 A 
ATOM     19  C   UNL d   1      11.011   4.905 -13.818  0.00  0.00     0.072 C 
ENDBRANCH   7   8
ENDBRANCH   1   7
BRANCH   4  20
ATOM     20  C   UNL d   1      10.583   7.509  -7.830  0.00  0.00     0.056 A 
ATOM     21  C   UNL d   1      10.607   8.930  -7.794  0.00  0.00     0.019 A 
ATOM     22  C   UNL d   1      10.780   9.611  -6.574  0.00  0.00     0.031 A 
ATOM     23  C   UNL d   1      10.921   8.893  -5.376  0.00  0.00     0.140 A 
ATOM     24  C   UNL d   1      10.891   7.485  -5.391  0.00  0.00     0.031 A 
ATOM     25  F   UNL d   1      11.053   9.571  -4.208  0.00  0.00    -0.204 F 
ATOM     26  C   UNL d   1      10.736   6.805  -6.613  0.00  0.00     0.019 A 
ENDBRANCH   4  20
TORSDOF 3
