REMARK  3 active torsions:
REMARK  status: ('A' for Active; 'I' for Inactive)
REMARK    1  A    between atoms: C_4  and  C_5 
REMARK    2  A    between atoms: C_5  and  N_6 
REMARK    3  A    between atoms: C_9  and  N_10 
ROOT
ATOM      1  N   UNL d   1       9.539   5.988 -11.638  0.00  0.00     0.141 N 
ATOM      2  C   UNL d   1       8.930   5.374 -10.460  0.00  0.00     0.253 C 
ATOM      3  C   UNL d   1       9.630   5.797  -9.164  0.00  0.00     0.058 C 
ATOM      4  C   UNL d   1       9.675   7.327  -8.986  0.00  0.00     0.090 C 
ATOM      5  C   UNL d   1      10.159   7.965 -10.313  0.00  0.00     0.058 C 
ATOM      6  C   UNL d   1       9.414   7.438 -11.542  0.00  0.00     0.253 C 
ENDROOT
BRANCH   1   7
ATOM      7  C   UNL d   1       8.916   5.505 -12.856  0.00  0.00     0.277 C 
BRANCH   7   8
ATOM      8  C   UNL d   1       9.833   4.601 -13.658  0.00  0.00     0.011 A 
ATOM      9  C   UNL d   1       9.620   3.210 -13.658  0.00  0.00    -0.002 A 
ATOM     10  C   UNL d   1      10.429   2.357 -14.436  0.00  0.00    -0.000 A 
ATOM     11  C   UNL d   1      11.461   2.893 -15.225  0.00  0.00    -0.000 A 
ATOM     12  C   UNL d   1      11.691   4.282 -15.229  0.00  0.00    -0.000 A 
ATOM     13  C   UNL d   1      10.870   5.131 -14.457  0.00  0.00    -0.002 A 
ENDBRANCH   7   8
ENDBRANCH   1   7
BRANCH   4  14
ATOM     14  N   UNL d   1      10.446   7.737  -7.816  0.00  0.00    -0.327 N 
ATOM     15  C   UNL d   1      11.373   8.769  -7.758  0.00  0.00     0.076 A 
ATOM     16  C   UNL d   1      11.858   8.837  -6.489  0.00  0.00     0.020 A 
ATOM     17  C   UNL d   1      11.192   7.843  -5.723  0.00  0.00     0.020 A 
ATOM     18  C   UNL d   1      10.305   7.214  -6.544  0.00  0.00     0.076 A 
ENDBRANCH   4  14
TORSDOF 3
