REMARK  4 active torsions:
REMARK  status: ('A' for Active; 'I' for Inactive)
REMARK    1  A    between atoms: C_2  and  C_3 
REMARK    2  A    between atoms: C_3  and  N_4 
REMARK    3  A    between atoms: N_4  and  C_5 
REMARK    4  A    between atoms: N_4  and  C_8 
ROOT
ATOM      1  C   UNL d   1      11.015   7.452  -7.545  0.00  0.00     0.224 C 
ATOM      2  C   UNL d   1      10.948   6.168  -6.724  0.00  0.00     0.038 C 
ATOM      3  C   UNL d   1      11.847   6.136  -5.536  0.00  0.00     0.028 C 
ATOM      4  C   UNL d   1      11.813   7.364  -4.717  0.00  0.00    -0.024 A 
ATOM      5  C   UNL d   1      12.312   7.289  -3.396  0.00  0.00    -0.004 A 
ATOM      6  C   UNL d   1      12.321   8.438  -2.594  0.00  0.00     0.002 A 
ATOM      7  C   UNL d   1      11.809   9.631  -3.121  0.00  0.00     0.027 A 
ATOM      8  C   UNL d   1      11.255   9.677  -4.406  0.00  0.00     0.127 A 
ATOM      9  O   UNL d   1      10.663  10.813  -4.842  0.00  0.00    -0.191 OA
ATOM     10  C   UNL d   1      11.260   8.551  -5.233  0.00  0.00     0.001 A 
ATOM     11  C   UNL d   1      10.601   8.608  -6.625  0.00  0.00     0.055 C 
ATOM     12  C   UNL d   1       9.076   8.647  -6.456  0.00  0.00     0.007 C 
ENDROOT
BRANCH   1  13
ATOM     13  N   UNL d   1      10.169   7.421  -8.789  0.00  0.00     0.133 N 
BRANCH  13  14
ATOM     14  C   UNL d   1      10.208   6.158  -9.498  0.00  0.00     0.250 C 
BRANCH  14  15
ATOM     15  C   UNL d   1       9.315   5.046  -8.869  0.00  0.00     0.035 C 
ATOM     16  C   UNL d   1       9.866   3.665  -9.200  0.00  0.00     0.002 C 
ENDBRANCH  14  15
ENDBRANCH  13  14
BRANCH  13  17
ATOM     17  C   UNL d   1      10.338   8.623  -9.648  0.00  0.00     0.219 C 
ATOM     18  C   UNL d   1       9.688   8.443 -11.043  0.00  0.00     0.035 C 
ATOM     19  C   UNL d   1      11.796   9.114  -9.777  0.00  0.00     0.035 C 
ENDBRANCH  13  17
ENDBRANCH   1  13
TORSDOF 4
