REMARK  6 active torsions:
REMARK  status: ('A' for Active; 'I' for Inactive)
REMARK       I    between atoms: C_2  and  N_3 
REMARK    1  A    between atoms: C_2  and  C_27 
REMARK    2  A    between atoms: N_3  and  C_4 
REMARK    3  A    between atoms: C_7  and  C_8 
REMARK    4  A    between atoms: C_8  and  C_9 
REMARK    5  A    between atoms: C_9  and  N_10 
REMARK    6  A    between atoms: C_13  and  C_14 
ROOT
ATOM      1  C   UNL d   1       8.989   4.944 -13.292  0.00  0.00     0.035 C 
ENDROOT
BRANCH   1   2
ATOM      2  C   UNL d   1       9.501   5.531 -11.976  0.00  0.00     0.002 C 
ATOM      3  C   UNL d   1       8.974   6.952 -11.772  0.00  0.00     0.002 C 
ATOM      4  C   UNL d   1       9.479   7.527 -10.439  0.00  0.00     0.024 C 
ATOM      5  C   UNL d   1       9.101   6.618  -9.240  0.00  0.00     0.107 C 
ATOM      6  C   UNL d   1       9.578   5.187  -9.442  0.00  0.00     0.024 C 
ATOM      7  C   UNL d   1       9.118   4.627 -10.794  0.00  0.00     0.002 C 
BRANCH   5   8
ATOM      8  N   UNL d   1       9.587   7.151  -7.974  0.00  0.00    -0.236 NA
ATOM      9  C   UNL d   1      10.853   7.522  -7.714  0.00  0.00     0.275 C 
ATOM     10  O   UNL d   1      11.745   7.602  -8.552  0.00  0.00    -0.266 OA
BRANCH   9  11
ATOM     11  C   UNL d   1      11.152   7.806  -6.282  0.00  0.00     0.058 A 
ATOM     12  C   UNL d   1      11.457   6.742  -5.412  0.00  0.00     0.006 A 
ATOM     13  C   UNL d   1      11.801   6.985  -4.075  0.00  0.00     0.012 A 
ATOM     14  C   UNL d   1      11.857   8.314  -3.619  0.00  0.00     0.058 A 
ATOM     15  C   UNL d   1      11.572   9.380  -4.492  0.00  0.00     0.012 A 
ATOM     16 CL   UNL d   1      12.299   8.628  -1.984  0.00  0.00    -0.082 Cl
ATOM     17  C   UNL d   1      11.222   9.135  -5.830  0.00  0.00     0.006 A 
ENDBRANCH   9  11
ENDBRANCH   5   8
ENDBRANCH   1   2
BRANCH   1  18
ATOM     18  C   UNL d   1       9.716   3.652 -13.716  0.00  0.00     0.250 C 
BRANCH  18  19
ATOM     19  N   UNL d   1       9.074   3.041 -14.871  0.00  0.00     0.137 N 
ATOM     20  C   UNL d   1       9.980   2.021 -15.401  0.00  0.00     0.251 C 
ATOM     21  C   UNL d   1       9.374   1.427 -16.676  0.00  0.00     0.040 C 
ATOM     22  C   UNL d   1       7.995   0.782 -16.422  0.00  0.00     0.026 C 
ATOM     23  C   UNL d   1       7.112   1.808 -15.698  0.00  0.00     0.040 C 
ATOM     24  C   UNL d   1       7.819   2.397 -14.476  0.00  0.00     0.251 C 
BRANCH  22  25
ATOM     25  C   UNL d   1       7.331   0.279 -17.714  0.00  0.00    -0.024 A 
ATOM     26  C   UNL d   1       6.107  -0.435 -17.691  0.00  0.00    -0.001 A 
ATOM     27  C   UNL d   1       5.501  -0.888 -18.859  0.00  0.00     0.090 A 
ATOM     28  C   UNL d   1       5.273  -0.863 -16.524  0.00  0.00     0.061 C 
ATOM     29  C   UNL d   1       6.079  -0.659 -20.117  0.00  0.00     0.024 A 
ATOM     30  O   UNL d   1       4.334  -1.557 -18.627  0.00  0.00    -0.331 OA
ATOM     31  C   UNL d   1       7.297   0.045 -20.176  0.00  0.00     0.002 A 
ATOM     32  C   UNL d   1       7.918   0.506 -18.988  0.00  0.00    -0.004 A 
ATOM     33  C   UNL d   1       4.049  -1.480 -17.226  0.00  0.00     0.154 C 
ENDBRANCH  22  25
ENDBRANCH  18  19
ENDBRANCH   1  18
TORSDOF 6
