REMARK  1 active torsions:
REMARK  status: ('A' for Active; 'I' for Inactive)
REMARK    1  A    between atoms: N_4  and  C_5 
ROOT
ATOM      1  C   UNL d   1      11.457   9.101 -10.032  0.00  0.00     0.054 C 
ATOM      2  C   UNL d   1      10.935   8.524  -8.742  0.00  0.00     0.084 A 
ATOM      3  N   UNL d   1      11.549   8.770  -7.549  0.00  0.00    -0.167 NA
ATOM      4  N   UNL d   1      10.913   8.039  -6.575  0.00  0.00    -0.195 N 
ATOM      5  C   UNL d   1       9.869   7.380  -7.125  0.00  0.00     0.282 A 
ATOM      6  O   UNL d   1       9.069   6.668  -6.530  0.00  0.00    -0.265 OA
ATOM      7  C   UNL d   1       9.902   7.701  -8.541  0.00  0.00     0.079 A 
ENDROOT
BRANCH   4   8
ATOM      8  C   UNL d   1      11.319   8.077  -5.220  0.00  0.00     0.086 A 
ATOM      9  C   UNL d   1      11.460   6.888  -4.468  0.00  0.00     0.019 A 
ATOM     10  C   UNL d   1      11.888   6.939  -3.126  0.00  0.00     0.002 A 
ATOM     11  C   UNL d   1      12.181   8.180  -2.531  0.00  0.00     0.000 A 
ATOM     12  C   UNL d   1      12.033   9.367  -3.275  0.00  0.00     0.002 A 
ATOM     13  C   UNL d   1      11.614   9.315  -4.619  0.00  0.00     0.019 A 
ENDBRANCH   4   8
TORSDOF 1
