REMARK  7 active torsions:
REMARK  status: ('A' for Active; 'I' for Inactive)
REMARK    1  A    between atoms: C_5  and  C_6 
REMARK    2  A    between atoms: N_14  and  C_15 
REMARK    3  A    between atoms: C_15  and  C_16 
REMARK    4  A    between atoms: C_16  and  C_17 
REMARK    5  A    between atoms: C_17  and  C_18 
REMARK    6  A    between atoms: C_18  and  N_19 
REMARK       I    between atoms: N_19  and  C_20 
REMARK    7  A    between atoms: C_20  and  C_22 
ROOT
ATOM      1  C   UNL d   1       7.497   5.349 -11.976  0.00  0.00     0.251 C 
ENDROOT
BRANCH   1   2
ATOM      2  N   UNL d   1       7.239   4.002 -12.493  0.00  0.00     0.140 N 
ATOM      3  C   UNL d   1       5.802   3.699 -12.575  0.00  0.00     0.249 C 
ATOM      4  C   UNL d   1       4.997   4.671 -13.457  0.00  0.00     0.038 C 
ATOM      5  C   UNL d   1       5.566   2.244 -13.045  0.00  0.00     0.176 C 
ATOM      6  O   UNL d   1       6.208   2.042 -14.302  0.00  0.00    -0.348 OA
ATOM      7  C   UNL d   1       7.605   2.307 -14.313  0.00  0.00     0.172 C 
ATOM      8  C   UNL d   1       7.891   3.733 -13.773  0.00  0.00     0.284 C 
BRANCH   7   9
ATOM      9  C   UNL d   1       8.204   2.123 -15.691  0.00  0.00     0.026 A 
ATOM     10  C   UNL d   1       7.402   1.912 -16.829  0.00  0.00     0.098 A 
ATOM     11  N   UNL d   1       7.899   1.794 -18.081  0.00  0.00    -0.230 NA
ATOM     12  C   UNL d   1       9.236   1.850 -18.228  0.00  0.00     0.151 A 
ATOM     13  C   UNL d   1      10.128   2.055 -17.159  0.00  0.00     0.033 A 
ATOM     14  N   UNL d   1       9.719   1.699 -19.519  0.00  0.00    -0.080 NA
ATOM     15  C   UNL d   1       9.600   2.195 -15.866  0.00  0.00     0.002 A 
ENDBRANCH   7   9
ENDBRANCH   1   2
BRANCH   1  16
ATOM     16  C   UNL d   1       8.964   5.690 -11.687  0.00  0.00     0.037 C 
BRANCH  16  17
ATOM     17  C   UNL d   1       9.204   5.982 -10.207  0.00  0.00     0.029 C 
BRANCH  17  18
ATOM     18  C   UNL d   1      10.410   6.889  -9.985  0.00  0.00     0.129 C 
BRANCH  18  19
ATOM     19  N   UNL d   1      10.599   7.133  -8.568  0.00  0.00    -0.233 NA
ATOM     20  C   UNL d   1      10.256   8.261  -7.934  0.00  0.00     0.293 C 
ATOM     21  O   UNL d   1       9.670   9.185  -8.480  0.00  0.00    -0.264 OA
BRANCH  20  22
ATOM     22  C   UNL d   1      10.745   8.398  -6.543  0.00  0.00     0.139 A 
ATOM     23  N   UNL d   1      11.036   7.253  -5.815  0.00  0.00    -0.241 NA
ATOM     24  C   UNL d   1      11.473   7.582  -4.555  0.00  0.00     0.082 A 
ATOM     25  C   UNL d   1      11.460   9.004  -4.486  0.00  0.00     0.019 A 
ATOM     26  C   UNL d   1      11.860   6.787  -3.473  0.00  0.00     0.019 A 
ATOM     27  C   UNL d   1      10.985   9.496  -5.747  0.00  0.00     0.025 A 
ATOM     28  C   UNL d   1      11.860   9.589  -3.260  0.00  0.00     0.002 A 
ATOM     29  C   UNL d   1      12.260   8.790  -2.169  0.00  0.00     0.000 A 
ATOM     30  C   UNL d   1      12.261   7.389  -2.276  0.00  0.00     0.002 A 
ENDBRANCH  20  22
ENDBRANCH  18  19
ENDBRANCH  17  18
ENDBRANCH  16  17
ENDBRANCH   1  16
TORSDOF 7
