REMARK  9 active torsions:
REMARK  status: ('A' for Active; 'I' for Inactive)
REMARK    1  A    between atoms: C_2  and  C_5 
REMARK    2  A    between atoms: C_7  and  C_8 
REMARK    3  A    between atoms: C_12  and  N_13 
REMARK    4  A    between atoms: N_16  and  C_17 
REMARK    5  A    between atoms: C_17  and  C_18 
REMARK    6  A    between atoms: C_18  and  C_19 
REMARK    7  A    between atoms: C_19  and  C_20 
REMARK    8  A    between atoms: C_20  and  N_21 
REMARK       I    between atoms: N_21  and  C_22 
REMARK    9  A    between atoms: C_22  and  C_24 
ROOT
ATOM      1  N   UNL d   1      11.312   1.357 -17.027  0.00  0.00    -0.330 N 
ATOM      2  C   UNL d   1      10.947   1.947 -15.756  0.00  0.00     0.138 C 
ATOM      3  C   UNL d   1       9.462   2.316 -15.756  0.00  0.00     0.274 C 
ATOM      4  N   UNL d   1       8.644   1.124 -16.028  0.00  0.00     0.141 N 
ATOM      5  C   UNL d   1       8.982   0.621 -17.372  0.00  0.00     0.274 C 
ATOM      6  C   UNL d   1      10.479   0.234 -17.443  0.00  0.00     0.138 C 
ENDROOT
BRANCH   4   7
ATOM      7  C   UNL d   1       7.211   1.429 -15.978  0.00  0.00     0.251 C 
BRANCH   7   8
ATOM      8  C   UNL d   1       6.667   1.602 -14.542  0.00  0.00     0.037 C 
BRANCH   8   9
ATOM      9  C   UNL d   1       7.182   2.870 -13.858  0.00  0.00     0.029 C 
BRANCH   9  10
ATOM     10  C   UNL d   1       6.262   3.532 -12.825  0.00  0.00     0.129 C 
BRANCH  10  11
ATOM     11  N   UNL d   1       7.011   4.441 -11.953  0.00  0.00    -0.233 NA
ATOM     12  C   UNL d   1       7.967   5.312 -12.320  0.00  0.00     0.294 C 
ATOM     13  O   UNL d   1       8.265   5.576 -13.483  0.00  0.00    -0.264 OA
BRANCH  12  14
ATOM     14  C   UNL d   1       8.683   5.950 -11.190  0.00  0.00     0.158 A 
ATOM     15  N   UNL d   1       8.723   5.462  -9.886  0.00  0.00    -0.222 NA
ATOM     16  C   UNL d   1       9.461   6.338  -9.207  0.00  0.00     0.148 A 
ATOM     17  N   UNL d   1       9.948   7.355 -10.062  0.00  0.00    -0.288 N 
ATOM     18  C   UNL d   1       9.843   6.404  -7.844  0.00  0.00     0.037 A 
ATOM     19  C   UNL d   1       9.447   7.067 -11.318  0.00  0.00     0.106 A 
ATOM     20  C   UNL d   1      10.754   8.363  -9.634  0.00  0.00     0.082 A 
ATOM     21  C   UNL d   1      11.117   8.414  -8.310  0.00  0.00     0.019 A 
ATOM     22  C   UNL d   1      10.650   7.429  -7.407  0.00  0.00     0.005 A 
ENDBRANCH  12  14
ENDBRANCH  10  11
ENDBRANCH   9  10
ENDBRANCH   8   9
ENDBRANCH   7   8
ENDBRANCH   4   7
BRANCH   1  23
ATOM     23  C   UNL d   1      12.352   1.880 -17.824  0.00  0.00     0.143 A 
ATOM     24  C   UNL d   1      12.842   3.189 -17.651  0.00  0.00     0.051 A 
ATOM     25  C   UNL d   1      13.905   3.583 -18.487  0.00  0.00     0.063 A 
ATOM     26  N   UNL d   1      14.444   2.738 -19.390  0.00  0.00    -0.235 NA
ATOM     27  C   UNL d   1      13.923   1.504 -19.461  0.00  0.00     0.140 A 
ATOM     28  N   UNL d   1      12.876   1.067 -18.756  0.00  0.00    -0.214 NA
BRANCH  25  29
ATOM     29  C   UNL d   1      14.508   4.952 -18.430  0.00  0.00     0.041 A 
ATOM     30  C   UNL d   1      14.284   5.937 -19.552  0.00  0.00     0.006 A 
ATOM     31  C   UNL d   1      13.654   6.181 -18.202  0.00  0.00     0.006 A 
ENDBRANCH  25  29
BRANCH  27  32
ATOM     32  C   UNL d   1      14.422   0.590 -20.588  0.00  0.00     0.052 C 
ATOM     33  C   UNL d   1      15.924   0.814 -20.850  0.00  0.00     0.008 C 
ATOM     34  C   UNL d   1      13.611   0.886 -21.860  0.00  0.00     0.008 C 
ATOM     35  C   UNL d   1      14.264  -0.902 -20.203  0.00  0.00     0.008 C 
ENDBRANCH  27  32
ENDBRANCH   1  23
TORSDOF 9
