REMARK  9 active torsions:
REMARK  status: ('A' for Active; 'I' for Inactive)
REMARK    1  A    between atoms: O_2  and  C_3 
REMARK    2  A    between atoms: C_7  and  N_8 
REMARK    3  A    between atoms: N_11  and  C_12 
REMARK    4  A    between atoms: C_12  and  C_13 
REMARK    5  A    between atoms: C_13  and  C_14 
REMARK    6  A    between atoms: C_14  and  C_15 
REMARK    7  A    between atoms: C_15  and  N_16 
REMARK       I    between atoms: N_16  and  C_17 
REMARK    8  A    between atoms: C_17  and  C_19 
REMARK    9  A    between atoms: C_22  and  N_23 
ROOT
ATOM      1  C   UNL d   1       6.422   2.924 -13.954  0.00  0.00     0.037 C 
ENDROOT
BRANCH   1   2
ATOM      2  C   UNL d   1       6.264   1.394 -13.778  0.00  0.00     0.251 C 
BRANCH   2   3
ATOM      3  N   UNL d   1       5.564   0.782 -14.902  0.00  0.00     0.141 N 
ATOM      4  C   UNL d   1       6.385   0.807 -16.121  0.00  0.00     0.274 C 
ATOM      5  C   UNL d   1       5.617   0.211 -17.314  0.00  0.00     0.137 C 
ATOM      6  N   UNL d   1       5.159  -1.139 -17.004  0.00  0.00    -0.344 N 
ATOM      7  C   UNL d   1       4.409  -1.242 -15.752  0.00  0.00     0.137 C 
ATOM      8  C   UNL d   1       5.217  -0.611 -14.597  0.00  0.00     0.274 C 
BRANCH   6   9
ATOM      9  C   UNL d   1       5.446  -2.243 -17.838  0.00  0.00     0.058 A 
ATOM     10  C   UNL d   1       5.735  -2.055 -19.211  0.00  0.00     0.017 A 
ATOM     11  C   UNL d   1       6.043  -3.152 -20.040  0.00  0.00     0.004 A 
ATOM     12  C   UNL d   1       6.057  -4.452 -19.514  0.00  0.00     0.024 A 
ATOM     13  C   UNL d   1       5.763  -4.676 -18.156  0.00  0.00     0.096 A 
ATOM     14  C   UNL d   1       5.462  -3.567 -17.324  0.00  0.00     0.041 A 
BRANCH  13  15
ATOM     15  O   UNL d   1       5.804  -5.984 -17.716  0.00  0.00    -0.328 OA
ATOM     16  C   UNL d   1       5.323  -6.269 -16.409  0.00  0.00     0.181 C 
ENDBRANCH  13  15
ENDBRANCH   6   9
ENDBRANCH   2   3
ENDBRANCH   1   2
BRANCH   1  17
ATOM     17  C   UNL d   1       7.073   3.594 -12.743  0.00  0.00     0.029 C 
BRANCH  17  18
ATOM     18  C   UNL d   1       7.052   5.121 -12.792  0.00  0.00     0.129 C 
BRANCH  18  19
ATOM     19  N   UNL d   1       7.698   5.673 -11.611  0.00  0.00    -0.234 NA
ATOM     20  C   UNL d   1       9.018   5.855 -11.489  0.00  0.00     0.275 C 
ATOM     21  O   UNL d   1       9.833   5.584 -12.372  0.00  0.00    -0.266 OA
BRANCH  20  22
ATOM     22  C   UNL d   1       9.462   6.459 -10.192  0.00  0.00     0.058 A 
ATOM     23  C   UNL d   1      10.283   7.605 -10.204  0.00  0.00     0.006 A 
ATOM     24  C   UNL d   1      10.735   8.175  -8.998  0.00  0.00     0.018 A 
ATOM     25  C   UNL d   1      10.357   7.609  -7.759  0.00  0.00     0.066 A 
ATOM     26  C   UNL d   1       9.538   6.459  -7.749  0.00  0.00     0.018 A 
ATOM     27  C   UNL d   1       9.086   5.889  -8.956  0.00  0.00     0.006 A 
BRANCH  25  28
ATOM     28  N   UNL d   1      10.811   8.151  -6.526  0.00  0.00    -0.287 N 
ATOM     29  C   UNL d   1      11.057   9.461  -6.387  0.00  0.00     0.183 A 
ATOM     30  N   UNL d   1      11.447   9.795  -5.164  0.00  0.00    -0.222 NA
ATOM     31  C   UNL d   1      11.462   8.588  -4.465  0.00  0.00     0.120 A 
ATOM     32  C   UNL d   1      11.060   7.561  -5.293  0.00  0.00     0.102 A 
ENDBRANCH  25  28
ENDBRANCH  20  22
ENDBRANCH  18  19
ENDBRANCH  17  18
ENDBRANCH   1  17
TORSDOF 9
