REMARK  7 active torsions:
REMARK  status: ('A' for Active; 'I' for Inactive)
REMARK    1  A    between atoms: C_3  and  O_4 
REMARK    2  A    between atoms: O_4  and  C_5 
REMARK    3  A    between atoms: C_8  and  C_9 
REMARK    4  A    between atoms: C_9  and  N_10 
REMARK    5  A    between atoms: N_13  and  C_14 
REMARK    6  A    between atoms: C_19  and  O_20 
REMARK    7  A    between atoms: C_25  and  O_26 
ROOT
ATOM      1  C   UNL d   1      15.240  10.528 -18.660  0.00  0.00     0.079 C 
ATOM      2  C   UNL d   1      14.853   9.758 -19.526  0.00  0.00    -0.121 C 
ATOM      3  C   UNL d   1      14.285   8.726 -20.415  0.00  0.00     0.212 C 
ENDROOT
BRANCH   3   4
ATOM      4  O   UNL d   1      14.728   7.418 -20.045  0.00  0.00    -0.316 OA
BRANCH   4   5
ATOM      5  C   UNL d   1      14.249   6.797 -18.901  0.00  0.00     0.117 A 
ATOM      6  C   UNL d   1      14.445   5.394 -18.777  0.00  0.00     0.116 A 
ATOM      7  C   UNL d   1      14.027   4.723 -17.599  0.00  0.00     0.024 A 
ATOM      8  C   UNL d   1      13.446   5.446 -16.539  0.00  0.00     0.013 A 
ATOM      9  C   UNL d   1      13.255   6.832 -16.658  0.00  0.00    -0.000 A 
ATOM     10  C   UNL d   1      13.602   7.495 -17.839  0.00  0.00     0.026 A 
BRANCH   6  11
ATOM     11  O   UNL d   1      15.050   4.744 -19.839  0.00  0.00    -0.326 OA
ATOM     12  C   UNL d   1      14.979   3.320 -19.883  0.00  0.00     0.181 C 
ENDBRANCH   6  11
BRANCH   8  13
ATOM     13  C   UNL d   1      12.979   4.746 -15.279  0.00  0.00     0.277 C 
BRANCH  13  14
ATOM     14  N   UNL d   1      11.631   4.208 -15.376  0.00  0.00     0.145 N 
ATOM     15  C   UNL d   1      11.328   3.442 -14.160  0.00  0.00     0.275 C 
ATOM     16  C   UNL d   1       9.919   2.813 -14.237  0.00  0.00     0.137 C 
ATOM     17  N   UNL d   1       8.940   3.850 -14.496  0.00  0.00    -0.343 N 
ATOM     18  C   UNL d   1       9.231   4.755 -15.591  0.00  0.00     0.137 C 
ATOM     19  C   UNL d   1      10.656   5.301 -15.475  0.00  0.00     0.275 C 
BRANCH  17  20
ATOM     20  C   UNL d   1       7.828   4.055 -13.659  0.00  0.00     0.079 A 
ATOM     21  C   UNL d   1       7.744   5.201 -12.839  0.00  0.00     0.110 A 
ATOM     22  C   UNL d   1       6.583   5.375 -12.033  0.00  0.00     0.026 A 
ATOM     23  C   UNL d   1       5.558   4.421 -12.057  0.00  0.00     0.002 A 
ATOM     24  C   UNL d   1       5.637   3.294 -12.872  0.00  0.00     0.002 A 
ATOM     25  C   UNL d   1       6.779   3.108 -13.688  0.00  0.00     0.019 A 
BRANCH  21  26
ATOM     26  O   UNL d   1       8.797   6.088 -12.845  0.00  0.00    -0.327 OA
ATOM     27  C   UNL d   1       8.716   7.235 -12.011  0.00  0.00     0.181 C 
ENDBRANCH  21  26
ENDBRANCH  17  20
ENDBRANCH  13  14
ENDBRANCH   8  13
ENDBRANCH   4   5
ENDBRANCH   3   4
TORSDOF 7
