REMARK  9 active torsions:
REMARK  status: ('A' for Active; 'I' for Inactive)
REMARK    1  A    between atoms: O_2  and  C_3 
REMARK    2  A    between atoms: C_8  and  C_9 
REMARK    3  A    between atoms: N_11  and  C_12 
REMARK    4  A    between atoms: C_12  and  C_13 
REMARK    5  A    between atoms: C_13  and  C_14 
REMARK    6  A    between atoms: C_14  and  C_16 
REMARK    7  A    between atoms: C_16  and  N_17 
REMARK    8  A    between atoms: N_20  and  C_21 
REMARK    9  A    between atoms: C_26  and  O_27 
ROOT
ATOM      1  C   UNL d   1      11.300   1.335 -17.282  0.00  0.00     0.188 C 
ATOM      2  O   UNL d   1      12.151   0.285 -17.656  0.00  0.00    -0.221 OA
ENDROOT
BRANCH   1   3
ATOM      3  C   UNL d   1      11.112   1.325 -15.741  0.00  0.00     0.061 C 
BRANCH   3   4
ATOM      4  C   UNL d   1       9.883   2.086 -15.184  0.00  0.00     0.132 C 
BRANCH   4   5
ATOM      5  N   UNL d   1       8.611   1.426 -15.456  0.00  0.00    -0.230 N 
ATOM      6  C   UNL d   1       7.986   1.166 -16.655  0.00  0.00     0.118 A 
ATOM      7  C   UNL d   1       6.841   0.511 -16.340  0.00  0.00     0.125 A 
ATOM      8  N   UNL d   1       6.777   0.457 -14.948  0.00  0.00    -0.129 NA
ATOM      9  N   UNL d   1       7.839   0.999 -14.439  0.00  0.00    -0.064 NA
BRANCH   7  10
ATOM     10  C   UNL d   1       5.823  -0.066 -17.227  0.00  0.00     0.043 A 
ATOM     11  C   UNL d   1       5.746   0.276 -18.611  0.00  0.00     0.096 A 
ATOM     12  C   UNL d   1       4.740  -0.332 -19.408  0.00  0.00     0.024 A 
ATOM     13  C   UNL d   1       3.856  -1.268 -18.853  0.00  0.00     0.002 A 
ATOM     14  C   UNL d   1       3.956  -1.620 -17.499  0.00  0.00     0.000 A 
ATOM     15  C   UNL d   1       4.942  -1.028 -16.693  0.00  0.00     0.004 A 
BRANCH  11  16
ATOM     16  O   UNL d   1       6.626   1.199 -19.138  0.00  0.00    -0.328 OA
ATOM     17  C   UNL d   1       6.638   1.444 -20.542  0.00  0.00     0.181 C 
ENDBRANCH  11  16
ENDBRANCH   7  10
ENDBRANCH   4   5
ENDBRANCH   3   4
ENDBRANCH   1   3
BRANCH   1  18
ATOM     18  C   UNL d   1      11.883   2.652 -17.820  0.00  0.00     0.283 C 
BRANCH  18  19
ATOM     19  N   UNL d   1      10.952   3.784 -17.864  0.00  0.00     0.144 N 
ATOM     20  C   UNL d   1       9.941   3.658 -18.927  0.00  0.00     0.274 C 
ATOM     21  C   UNL d   1       8.943   4.832 -18.944  0.00  0.00     0.137 C 
ATOM     22  N   UNL d   1       9.674   6.089 -19.027  0.00  0.00    -0.343 N 
ATOM     23  C   UNL d   1      10.726   6.272 -18.032  0.00  0.00     0.137 C 
ATOM     24  C   UNL d   1      11.664   5.046 -18.053  0.00  0.00     0.274 C 
BRANCH  22  25
ATOM     25  C   UNL d   1       9.348   7.050 -20.003  0.00  0.00     0.079 A 
ATOM     26  C   UNL d   1      10.352   7.750 -20.726  0.00  0.00     0.110 A 
ATOM     27  C   UNL d   1       9.955   8.704 -21.706  0.00  0.00     0.026 A 
ATOM     28  C   UNL d   1       8.595   8.944 -21.966  0.00  0.00     0.002 A 
ATOM     29  C   UNL d   1       7.605   8.246 -21.258  0.00  0.00     0.002 A 
ATOM     30  C   UNL d   1       7.987   7.298 -20.284  0.00  0.00     0.019 A 
BRANCH  26  31
ATOM     31  O   UNL d   1      11.680   7.447 -20.487  0.00  0.00    -0.327 OA
ATOM     32  C   UNL d   1      12.693   8.100 -21.235  0.00  0.00     0.181 C 
ENDBRANCH  26  31
ENDBRANCH  22  25
ENDBRANCH  18  19
ENDBRANCH   1  18
TORSDOF 9
