REMARK  13 active torsions:
REMARK  status: ('A' for Active; 'I' for Inactive)
REMARK    1  A    between atoms: C_2  and  O_3 
REMARK    2  A    between atoms: O_3  and  C_4 
REMARK    3  A    between atoms: C_4  and  C_5 
REMARK    4  A    between atoms: C_5  and  O_6 
REMARK    5  A    between atoms: O_6  and  C_7 
REMARK    6  A    between atoms: C_7  and  C_8 
REMARK    7  A    between atoms: C_14  and  C_15 
REMARK       I    between atoms: C_15  and  N_17 
REMARK    8  A    between atoms: N_17  and  C_18 
REMARK    9  A    between atoms: C_18  and  C_19 
REMARK   10  A    between atoms: C_19  and  C_20 
REMARK   11  A    between atoms: C_20  and  N_21 
REMARK   12  A    between atoms: N_24  and  C_25 
REMARK   13  A    between atoms: C_30  and  O_31 
ROOT
ATOM      1  C   UNL d   1       8.977   1.720 -17.808  0.00  0.00     0.278 C 
ATOM      2  O   UNL d   1       8.262   2.638 -18.216  0.00  0.00    -0.265 OA
ATOM      3  N   UNL d   1       9.957   1.911 -16.915  0.00  0.00    -0.234 NA
ENDROOT
BRANCH   1   4
ATOM      4  C   UNL d   1       8.867   0.324 -18.291  0.00  0.00     0.096 A 
ATOM      5  C   UNL d   1       9.366  -0.880 -17.729  0.00  0.00     0.127 A 
ATOM      6  N   UNL d   1       9.064  -1.943 -18.432  0.00  0.00    -0.163 NA
ATOM      7  N   UNL d   1       8.314  -1.461 -19.484  0.00  0.00    -0.228 N 
ATOM      8  C   UNL d   1       7.773  -2.220 -20.471  0.00  0.00     0.100 A 
ATOM      9  C   UNL d   1       8.180  -0.059 -19.415  0.00  0.00     0.089 A 
ATOM     10  C   UNL d   1       7.058  -1.600 -21.459  0.00  0.00     0.019 A 
ATOM     11  C   UNL d   1       6.867  -0.199 -21.443  0.00  0.00     0.010 A 
ATOM     12  C   UNL d   1       7.426   0.575 -20.442  0.00  0.00     0.018 A 
BRANCH  11  13
ATOM     13  C   UNL d   1       6.081   0.424 -22.595  0.00  0.00     0.169 C 
BRANCH  13  14
ATOM     14  O   UNL d   1       5.638   1.749 -22.305  0.00  0.00    -0.347 OA
BRANCH  14  15
ATOM     15  C   UNL d   1       6.162   2.775 -23.130  0.00  0.00     0.175 C 
BRANCH  15  16
ATOM     16  C   UNL d   1       7.677   3.038 -22.875  0.00  0.00     0.174 C 
BRANCH  16  17
ATOM     17  O   UNL d   1       7.904   3.927 -21.792  0.00  0.00    -0.352 OA
BRANCH  17  18
ATOM     18  C   UNL d   1       7.711   5.300 -22.096  0.00  0.00     0.142 C 
ATOM     19  C   UNL d   1       8.099   6.156 -20.888  0.00  0.00     0.035 C 
ENDBRANCH  17  18
ENDBRANCH  16  17
ENDBRANCH  15  16
ENDBRANCH  14  15
ENDBRANCH  13  14
ENDBRANCH  11  13
ENDBRANCH   1   4
BRANCH   3  20
ATOM     20  C   UNL d   1      10.286   3.194 -16.306  0.00  0.00     0.131 C 
BRANCH  20  21
ATOM     21  C   UNL d   1       9.450   3.429 -15.047  0.00  0.00     0.062 C 
BRANCH  21  22
ATOM     22  C   UNL d   1       9.639   4.834 -14.467  0.00  0.00     0.253 C 
BRANCH  22  23
ATOM     23  N   UNL d   1       8.939   5.005 -13.203  0.00  0.00     0.141 N 
ATOM     24  C   UNL d   1       8.951   6.436 -12.854  0.00  0.00     0.274 C 
ATOM     25  C   UNL d   1       8.259   6.715 -11.540  0.00  0.00     0.137 C 
ATOM     26  N   UNL d   1       8.827   5.888 -10.483  0.00  0.00    -0.343 N 
ATOM     27  C   UNL d   1       8.907   4.475 -10.771  0.00  0.00     0.137 C 
ATOM     28  C   UNL d   1       9.589   4.246 -12.120  0.00  0.00     0.274 C 
BRANCH  26  29
ATOM     29  C   UNL d   1       9.267   6.424  -9.285  0.00  0.00     0.079 A 
ATOM     30  C   UNL d   1      10.253   7.455  -9.237  0.00  0.00     0.110 A 
ATOM     31  C   UNL d   1      10.673   7.949  -7.977  0.00  0.00     0.026 A 
ATOM     32  C   UNL d   1      10.097   7.491  -6.794  0.00  0.00     0.002 A 
ATOM     33  C   UNL d   1       9.101   6.521  -6.842  0.00  0.00     0.002 A 
ATOM     34  C   UNL d   1       8.695   5.958  -8.066  0.00  0.00     0.019 A 
BRANCH  30  35
ATOM     35  O   UNL d   1      10.772   7.915 -10.422  0.00  0.00    -0.327 OA
ATOM     36  C   UNL d   1      11.860   8.814 -10.342  0.00  0.00     0.181 C 
ENDBRANCH  30  35
ENDBRANCH  26  29
ENDBRANCH  22  23
ENDBRANCH  21  22
ENDBRANCH  20  21
ENDBRANCH   3  20
TORSDOF 13
