REMARK  7 active torsions:
REMARK  status: ('A' for Active; 'I' for Inactive)
REMARK       I    between atoms: N_2  and  C_4 
REMARK       I    between atoms: C_4  and  N_6 
REMARK    1  A    between atoms: N_6  and  C_7 
REMARK    2  A    between atoms: C_10  and  C_11 
REMARK    3  A    between atoms: C_11  and  C_12 
REMARK    4  A    between atoms: C_12  and  N_13 
REMARK    5  A    between atoms: N_13  and  C_14 
REMARK    6  A    between atoms: C_14  and  C_15 
REMARK    7  A    between atoms: C_17  and  C_18 
ROOT
ATOM      1  N   UNL d   1       8.051   5.534 -11.735  0.00  0.00     0.339 N 
ENDROOT
BRANCH   1   2
ATOM      2  C   UNL d   1       9.046   5.367 -10.704  0.00  0.00     0.290 C 
BRANCH   2   3
ATOM      3  C   UNL d   1       9.623   6.741 -10.387  0.00  0.00     0.038 C 
BRANCH   3   4
ATOM      4  C   UNL d   1      10.189   6.851  -8.962  0.00  0.00     0.002 C 
ATOM      5  C   UNL d   1      11.330   7.881  -8.938  0.00  0.00     0.002 C 
ATOM      6  C   UNL d   1      11.900   8.022  -7.526  0.00  0.00     0.025 C 
ATOM      7  C   UNL d   1      10.818   8.402  -6.502  0.00  0.00     0.108 C 
ATOM      8  C   UNL d   1       9.630   7.416  -6.537  0.00  0.00     0.025 C 
ATOM      9  C   UNL d   1       9.086   7.254  -7.955  0.00  0.00     0.002 C 
BRANCH   7  10
ATOM     10  N   UNL d   1      11.377   8.550  -5.167  0.00  0.00    -0.221 NA
ATOM     11  C   UNL d   1      11.833   7.578  -4.345  0.00  0.00     0.342 C 
ATOM     12  N   UNL d   1      12.206   8.023  -3.131  0.00  0.00    -0.297 N 
ATOM     13  O   UNL d   1      11.857   6.392  -4.651  0.00  0.00    -0.245 OA
ATOM     14  C   UNL d   1      12.490   7.051  -2.081  0.00  0.00     0.130 C 
ATOM     15  C   UNL d   1      12.316   9.434  -2.775  0.00  0.00     0.130 C 
ENDBRANCH   7  10
ENDBRANCH   3   4
ENDBRANCH   2   3
ENDBRANCH   1   2
BRANCH   1  16
ATOM     16  C   UNL d   1       7.325   4.292 -11.862  0.00  0.00     0.290 C 
BRANCH  16  17
ATOM     17  C   UNL d   1       6.155   4.465 -12.815  0.00  0.00     0.041 A 
ATOM     18  C   UNL d   1       5.916   3.566 -14.011  0.00  0.00     0.026 A 
ATOM     19  C   UNL d   1       5.030   3.450 -12.807  0.00  0.00     0.007 A 
BRANCH  18  20
ATOM     20  C   UNL d   1       6.877   2.472 -14.386  0.00  0.00     0.002 A 
ATOM     21  C   UNL d   1       8.230   2.755 -14.650  0.00  0.00     0.112 A 
ATOM     22  C   UNL d   1       9.157   1.712 -14.897  0.00  0.00     0.116 A 
ATOM     23  O   UNL d   1       8.648   4.076 -14.613  0.00  0.00    -0.326 OA
ATOM     24  C   UNL d   1       8.687   0.388 -14.964  0.00  0.00     0.026 A 
ATOM     25  O   UNL d   1      10.508   1.955 -15.029  0.00  0.00    -0.326 OA
ATOM     26  C   UNL d   1       7.322   0.099 -14.756  0.00  0.00     0.002 A 
ATOM     27  C   UNL d   1       6.420   1.140 -14.460  0.00  0.00    -0.002 A 
ATOM     28  C   UNL d   1      10.918   3.241 -14.575  0.00  0.00     0.181 C 
ATOM     29  C   UNL d   1       9.957   4.315 -15.102  0.00  0.00     0.181 C 
ENDBRANCH  18  20
ENDBRANCH  16  17
ENDBRANCH   1  16
TORSDOF 7
