REMARK  8 active torsions:
REMARK  status: ('A' for Active; 'I' for Inactive)
REMARK    1  A    between atoms: O_2  and  C_3 
REMARK    2  A    between atoms: C_8  and  N_9 
REMARK    3  A    between atoms: N_12  and  C_13 
REMARK    4  A    between atoms: C_13  and  C_14 
REMARK    5  A    between atoms: C_14  and  C_16 
REMARK    6  A    between atoms: C_16  and  C_17 
REMARK    7  A    between atoms: C_17  and  N_18 
REMARK       I    between atoms: N_18  and  C_19 
REMARK    8  A    between atoms: C_19  and  C_21 
ROOT
ATOM      1  C   UNL d   1       8.524   6.960 -12.037  0.00  0.00     0.196 C 
ATOM      2  F   UNL d   1       8.284   8.273 -12.044  0.00  0.00    -0.235 F 
ENDROOT
BRANCH   1   3
ATOM      3  C   UNL d   1       7.225   6.220 -12.425  0.00  0.00     0.285 C 
BRANCH   3   4
ATOM      4  N   UNL d   1       7.419   4.821 -12.815  0.00  0.00     0.144 N 
ATOM      5  C   UNL d   1       6.138   4.256 -13.287  0.00  0.00     0.274 C 
ATOM      6  C   UNL d   1       6.266   2.780 -13.684  0.00  0.00     0.137 C 
ATOM      7  N   UNL d   1       7.395   2.560 -14.591  0.00  0.00    -0.343 N 
ATOM      8  C   UNL d   1       8.651   3.169 -14.167  0.00  0.00     0.137 C 
ATOM      9  C   UNL d   1       8.441   4.652 -13.856  0.00  0.00     0.274 C 
BRANCH   7  10
ATOM     10  C   UNL d   1       7.283   1.888 -15.830  0.00  0.00     0.079 A 
ATOM     11  C   UNL d   1       6.427   0.759 -15.996  0.00  0.00     0.110 A 
ATOM     12  C   UNL d   1       6.346   0.152 -17.281  0.00  0.00     0.026 A 
ATOM     13  C   UNL d   1       7.105   0.626 -18.362  0.00  0.00     0.002 A 
ATOM     14  C   UNL d   1       7.953   1.719 -18.194  0.00  0.00     0.002 A 
ATOM     15  C   UNL d   1       8.039   2.350 -16.945  0.00  0.00     0.019 A 
BRANCH  11  16
ATOM     16  O   UNL d   1       5.725   0.286 -14.902  0.00  0.00    -0.327 OA
ATOM     17  C   UNL d   1       4.795  -0.774 -15.084  0.00  0.00     0.181 C 
ENDBRANCH  11  16
ENDBRANCH   7  10
ENDBRANCH   3   4
ENDBRANCH   1   3
BRANCH   1  18
ATOM     18  C   UNL d   1       9.011   6.500 -10.650  0.00  0.00     0.064 C 
BRANCH  18  19
ATOM     19  C   UNL d   1      10.357   7.129 -10.305  0.00  0.00     0.132 C 
BRANCH  19  20
ATOM     20  N   UNL d   1      10.447   7.412  -8.886  0.00  0.00    -0.233 NA
ATOM     21  C   UNL d   1      10.863   8.576  -8.369  0.00  0.00     0.293 C 
ATOM     22  O   UNL d   1      11.070   9.582  -9.045  0.00  0.00    -0.264 OA
BRANCH  21  23
ATOM     23  C   UNL d   1      11.093   8.587  -6.912  0.00  0.00     0.139 A 
ATOM     24  N   UNL d   1      11.173   7.382  -6.226  0.00  0.00    -0.241 NA
ATOM     25  C   UNL d   1      11.458   7.596  -4.901  0.00  0.00     0.082 A 
ATOM     26  C   UNL d   1      11.543   9.007  -4.737  0.00  0.00     0.019 A 
ATOM     27  C   UNL d   1      11.654   6.705  -3.839  0.00  0.00     0.019 A 
ATOM     28  C   UNL d   1      11.310   9.612  -6.023  0.00  0.00     0.025 A 
ATOM     29  C   UNL d   1      11.823   9.479  -3.434  0.00  0.00     0.002 A 
ATOM     30  C   UNL d   1      12.008   8.586  -2.360  0.00  0.00     0.000 A 
ATOM     31  C   UNL d   1      11.915   7.196  -2.555  0.00  0.00     0.002 A 
ENDBRANCH  21  23
ENDBRANCH  19  20
ENDBRANCH  18  19
ENDBRANCH   1  18
TORSDOF 8
