REMARK  8 active torsions:
REMARK  status: ('A' for Active; 'I' for Inactive)
REMARK    1  A    between atoms: O_2  and  C_3 
REMARK    2  A    between atoms: C_6  and  C_7 
REMARK    3  A    between atoms: C_10  and  C_11 
REMARK    4  A    between atoms: C_11  and  N_12 
REMARK    5  A    between atoms: N_12  and  C_13 
REMARK    6  A    between atoms: C_13  and  C_14 
REMARK    7  A    between atoms: C_14  and  C_15 
REMARK    8  A    between atoms: C_21  and  O_22 
ROOT
ATOM      1  C   UNL d   1       8.373   5.310 -11.506  0.00  0.00     0.341 C 
ENDROOT
BRANCH   1   2
ATOM      2  C   UNL d   1       9.091   6.479 -10.941  0.00  0.00     0.114 A 
ATOM      3  C   UNL d   1       9.464   7.682 -11.465  0.00  0.00     0.024 A 
ATOM      4  C   UNL d   1      10.104   8.388 -10.409  0.00  0.00     0.026 A 
ATOM      5  C   UNL d   1      10.047   7.581  -9.307  0.00  0.00     0.100 A 
ATOM      6  O   UNL d   1       9.449   6.397  -9.630  0.00  0.00    -0.309 OA
BRANCH   5   7
ATOM      7  C   UNL d   1      10.517   7.761  -7.936  0.00  0.00     0.023 A 
ATOM      8  C   UNL d   1      11.057   8.991  -7.504  0.00  0.00     0.004 A 
ATOM      9  C   UNL d   1      11.515   9.153  -6.181  0.00  0.00     0.024 A 
ATOM     10  C   UNL d   1      11.455   8.087  -5.260  0.00  0.00     0.094 A 
ATOM     11  C   UNL d   1      10.913   6.853  -5.695  0.00  0.00     0.024 A 
ATOM     12  C   UNL d   1      10.445   6.700  -7.013  0.00  0.00     0.004 A 
BRANCH  10  13
ATOM     13  O   UNL d   1      11.932   8.314  -3.987  0.00  0.00    -0.328 OA
ATOM     14  C   UNL d   1      12.004   7.211  -3.090  0.00  0.00     0.181 C 
ENDBRANCH  10  13
ENDBRANCH   5   7
ENDBRANCH   1   2
BRANCH   1  15
ATOM     15  N   UNL d   1       9.225   4.555 -12.406  0.00  0.00     0.346 N 
BRANCH  15  16
ATOM     16  C   UNL d   1       8.404   3.849 -13.371  0.00  0.00     0.295 C 
BRANCH  16  17
ATOM     17  C   UNL d   1       9.249   2.768 -14.052  0.00  0.00     0.066 C 
BRANCH  17  18
ATOM     18  C   UNL d   1       8.544   2.169 -15.228  0.00  0.00     0.001 A 
ATOM     19  C   UNL d   1       7.339   1.368 -15.254  0.00  0.00     0.017 A 
ATOM     20  C   UNL d   1       7.070   1.052 -16.622  0.00  0.00     0.081 A 
ATOM     21  C   UNL d   1       6.411   0.865 -14.300  0.00  0.00     0.025 A 
ATOM     22  N   UNL d   1       8.075   1.640 -17.358  0.00  0.00    -0.244 NA
ATOM     23  C   UNL d   1       5.970   0.293 -17.015  0.00  0.00     0.021 A 
ATOM     24  C   UNL d   1       8.960   2.298 -16.534  0.00  0.00     0.095 A 
ATOM     25  C   UNL d   1       5.071  -0.193 -16.049  0.00  0.00     0.026 A 
ATOM     26  C   UNL d   1       5.281   0.106 -14.671  0.00  0.00     0.094 A 
BRANCH  26  27
ATOM     27  O   UNL d   1       4.415  -0.289 -13.674  0.00  0.00    -0.328 OA
ATOM     28  C   UNL d   1       3.186  -0.884 -14.054  0.00  0.00     0.181 C 
ENDBRANCH  26  27
ENDBRANCH  17  18
ENDBRANCH  16  17
ENDBRANCH  15  16
ENDBRANCH   1  15
TORSDOF 8
