REMARK  8 active torsions:
REMARK  status: ('A' for Active; 'I' for Inactive)
REMARK    1  A    between atoms: C_2  and  C_5 
REMARK    2  A    between atoms: C_7  and  N_8 
REMARK    3  A    between atoms: N_11  and  C_12 
REMARK    4  A    between atoms: C_12  and  C_13 
REMARK    5  A    between atoms: C_13  and  C_14 
REMARK    6  A    between atoms: C_14  and  S_15 
REMARK    7  A    between atoms: S_15  and  C_16 
REMARK    8  A    between atoms: C_26  and  C_27 
ROOT
ATOM      1  N   UNL d   1       8.331   3.630 -14.020  0.00  0.00    -0.330 N 
ATOM      2  C   UNL d   1       9.622   4.314 -14.150  0.00  0.00     0.138 C 
ATOM      3  C   UNL d   1      10.203   4.599 -12.753  0.00  0.00     0.274 C 
ATOM      4  N   UNL d   1       9.265   5.381 -11.936  0.00  0.00     0.141 N 
ATOM      5  C   UNL d   1       8.040   4.601 -11.792  0.00  0.00     0.274 C 
ATOM      6  C   UNL d   1       7.386   4.332 -13.146  0.00  0.00     0.138 C 
ENDROOT
BRANCH   1   7
ATOM      7  C   UNL d   1       8.038   2.428 -14.687  0.00  0.00     0.143 A 
ATOM      8  N   UNL d   1       8.905   2.006 -15.641  0.00  0.00    -0.214 NA
ATOM      9  C   UNL d   1       8.654   0.862 -16.283  0.00  0.00     0.140 A 
ATOM     10  N   UNL d   1       7.544   0.141 -16.123  0.00  0.00    -0.227 NA
ATOM     11  C   UNL d   1       6.670   0.513 -15.169  0.00  0.00     0.157 A 
ATOM     12  C   UNL d   1       6.879   1.681 -14.413  0.00  0.00     0.060 A 
BRANCH   9  13
ATOM     13  C   UNL d   1       9.576   0.467 -17.451  0.00  0.00     0.052 C 
ATOM     14  C   UNL d   1       8.998   1.008 -18.765  0.00  0.00     0.008 C 
ATOM     15  C   UNL d   1       9.706  -1.076 -17.528  0.00  0.00     0.008 C 
ATOM     16  C   UNL d   1      11.005   1.025 -17.260  0.00  0.00     0.008 C 
ENDBRANCH   9  13
BRANCH  11  17
ATOM     17  C   UNL d   1       5.445  -0.360 -14.930  0.00  0.00     0.435 C 
ATOM     18  F   UNL d   1       4.635   0.183 -14.025  0.00  0.00    -0.165 F 
ATOM     19  F   UNL d   1       4.763  -0.501 -16.065  0.00  0.00    -0.165 F 
ATOM     20  F   UNL d   1       5.802  -1.558 -14.471  0.00  0.00    -0.165 F 
ENDBRANCH  11  17
ENDBRANCH   1   7
BRANCH   4  21
ATOM     21  C   UNL d   1       9.834   5.635 -10.616  0.00  0.00     0.251 C 
BRANCH  21  22
ATOM     22  C   UNL d   1       9.057   6.678  -9.833  0.00  0.00     0.047 C 
BRANCH  22  23
ATOM     23  C   UNL d   1       9.703   6.998  -8.492  0.00  0.00     0.067 C 
BRANCH  23  24
ATOM     24  S   UNL d   1       9.632   8.776  -8.090  0.00  0.00    -0.075 SA
BRANCH  24  25
ATOM     25  C   UNL d   1      10.446   8.867  -6.461  0.00  0.00     0.193 A 
ATOM     26  N   UNL d   1      10.848   7.598  -6.013  0.00  0.00    -0.183 NA
ATOM     27  C   UNL d   1      11.486   7.388  -4.844  0.00  0.00     0.283 A 
ATOM     28  C   UNL d   1      11.727   8.568  -4.043  0.00  0.00     0.083 A 
ATOM     29  O   UNL d   1      11.876   6.275  -4.525  0.00  0.00    -0.265 OA
ATOM     30  C   UNL d   1      11.299   9.767  -4.494  0.00  0.00     0.106 A 
ATOM     31  N   UNL d   1      10.663   9.915  -5.730  0.00  0.00    -0.220 NA
ENDBRANCH  24  25
ENDBRANCH  23  24
ENDBRANCH  22  23
ENDBRANCH  21  22
ENDBRANCH   4  21
TORSDOF 8
