REMARK  6 active torsions:
REMARK  status: ('A' for Active; 'I' for Inactive)
REMARK       I    between atoms: C_2  and  N_3 
REMARK    1  A    between atoms: C_2  and  C_30 
REMARK    2  A    between atoms: N_3  and  C_4 
REMARK    3  A    between atoms: C_10  and  C_11 
REMARK    4  A    between atoms: C_11  and  C_12 
REMARK    5  A    between atoms: C_12  and  N_13 
REMARK    6  A    between atoms: N_16  and  C_17 
ROOT
ATOM      1  C   UNL d   1       7.490   5.490 -12.857  0.00  0.00     0.129 C 
ATOM      2  C   UNL d   1       6.174   5.575 -12.041  0.00  0.00     0.034 C 
ATOM      3  C   UNL d   1       5.525   4.173 -12.068  0.00  0.00     0.028 C 
ATOM      4  C   UNL d   1       6.285   3.425 -13.080  0.00  0.00    -0.024 A 
ATOM      5  C   UNL d   1       5.991   2.142 -13.572  0.00  0.00    -0.005 A 
ATOM      6  C   UNL d   1       6.873   1.587 -14.506  0.00  0.00    -0.005 A 
ATOM      7  C   UNL d   1       7.999   2.333 -14.956  0.00  0.00    -0.020 A 
ATOM      8  C   UNL d   1       8.289   3.608 -14.430  0.00  0.00    -0.007 A 
ATOM      9  C   UNL d   1       7.388   4.145 -13.514  0.00  0.00    -0.004 A 
ENDROOT
BRANCH   7  10
ATOM     10  C   UNL d   1       8.848   1.789 -16.048  0.00  0.00     0.062 C 
BRANCH  10  11
ATOM     11  C   UNL d   1       9.809   0.697 -15.553  0.00  0.00     0.255 C 
BRANCH  11  12
ATOM     12  N   UNL d   1      10.591   0.065 -16.614  0.00  0.00     0.141 N 
ATOM     13  C   UNL d   1      11.678   0.944 -17.035  0.00  0.00     0.274 C 
ATOM     14  C   UNL d   1      12.557   0.206 -18.043  0.00  0.00     0.138 C 
ATOM     15  N   UNL d   1      11.788  -0.243 -19.192  0.00  0.00    -0.329 N 
ATOM     16  C   UNL d   1      10.645  -1.063 -18.817  0.00  0.00     0.138 C 
ATOM     17  C   UNL d   1       9.790  -0.338 -17.781  0.00  0.00     0.274 C 
BRANCH  15  18
ATOM     18  C   UNL d   1      12.120   0.077 -20.517  0.00  0.00     0.148 A 
ATOM     19  C   UNL d   1      13.505   0.245 -20.988  0.00  0.00     0.042 A 
ATOM     20  C   UNL d   1      13.496   0.596 -22.370  0.00  0.00     0.050 A 
ATOM     21  C   UNL d   1      14.783   0.118 -20.378  0.00  0.00     0.004 A 
ATOM     22  S   UNL d   1      11.832   0.655 -22.910  0.00  0.00     0.015 SA
ATOM     23  C   UNL d   1      14.683   0.834 -23.099  0.00  0.00     0.008 A 
ATOM     24  N   UNL d   1      11.166   0.230 -21.429  0.00  0.00    -0.192 NA
ATOM     25  C   UNL d   1      15.926   0.726 -22.453  0.00  0.00     0.001 A 
ATOM     26  C   UNL d   1      15.975   0.373 -21.094  0.00  0.00     0.000 A 
ENDBRANCH  15  18
ENDBRANCH  11  12
ENDBRANCH  10  11
ENDBRANCH   7  10
BRANCH   1  27
ATOM     27  N   UNL d   1       8.653   5.528 -12.001  0.00  0.00    -0.232 NA
ATOM     28  C   UNL d   1       9.222   6.672 -11.615  0.00  0.00     0.277 C 
ATOM     29  O   UNL d   1       9.201   7.706 -12.289  0.00  0.00    -0.266 OA
BRANCH  28  30
ATOM     30  C   UNL d   1       9.848   6.624 -10.267  0.00  0.00     0.077 A 
ATOM     31  C   UNL d   1       9.417   5.666  -9.316  0.00  0.00     0.104 A 
ATOM     32  N   UNL d   1       9.858   5.631  -8.045  0.00  0.00    -0.242 NA
ATOM     33  C   UNL d   1      10.700   6.596  -7.635  0.00  0.00     0.099 A 
ATOM     34  C   UNL d   1      11.181   7.607  -8.489  0.00  0.00     0.021 A 
ATOM     35  C   UNL d   1      10.716   7.639  -9.818  0.00  0.00     0.008 A 
ENDBRANCH  28  30
ENDBRANCH   1  27
TORSDOF 6
