REMARK  6 active torsions:
REMARK  status: ('A' for Active; 'I' for Inactive)
REMARK       I    between atoms: C_2  and  N_3 
REMARK    1  A    between atoms: C_2  and  C_27 
REMARK    2  A    between atoms: N_3  and  C_4 
REMARK    3  A    between atoms: C_7  and  C_8 
REMARK    4  A    between atoms: C_8  and  C_9 
REMARK    5  A    between atoms: C_9  and  N_10 
REMARK    6  A    between atoms: C_13  and  C_14 
ROOT
ATOM      1  C   UNL d   1       8.991   3.169 -15.431  0.00  0.00     0.107 C 
ATOM      2  C   UNL d   1       7.806   3.080 -14.439  0.00  0.00     0.024 C 
ATOM      3  C   UNL d   1       7.831   4.239 -13.436  0.00  0.00     0.002 C 
ATOM      4  C   UNL d   1       9.176   4.315 -12.707  0.00  0.00     0.002 C 
ATOM      5  C   UNL d   1      10.347   4.377 -13.706  0.00  0.00     0.002 C 
ATOM      6  C   UNL d   1      10.328   3.208 -14.693  0.00  0.00     0.024 C 
ENDROOT
BRANCH   4   7
ATOM      7  C   UNL d   1       9.212   5.534 -11.772  0.00  0.00     0.035 C 
BRANCH   7   8
ATOM      8  C   UNL d   1       8.582   5.296 -10.385  0.00  0.00     0.250 C 
BRANCH   8   9
ATOM      9  N   UNL d   1       9.084   6.205  -9.349  0.00  0.00     0.137 N 
ATOM     10  C   UNL d   1       8.565   5.752  -8.063  0.00  0.00     0.251 C 
ATOM     11  C   UNL d   1       8.950   6.743  -6.954  0.00  0.00     0.040 C 
ATOM     12  C   UNL d   1      10.476   6.888  -6.859  0.00  0.00     0.026 C 
ATOM     13  C   UNL d   1      11.036   7.212  -8.238  0.00  0.00     0.040 C 
ATOM     14  C   UNL d   1      10.539   6.208  -9.272  0.00  0.00     0.251 C 
BRANCH  12  15
ATOM     15  C   UNL d   1      10.891   7.940  -5.845  0.00  0.00    -0.024 A 
ATOM     16  C   UNL d   1      11.478   7.614  -4.607  0.00  0.00    -0.001 A 
ATOM     17  C   UNL d   1      11.827   8.564  -3.659  0.00  0.00     0.090 A 
ATOM     18  C   UNL d   1      11.762   6.278  -4.049  0.00  0.00     0.061 A 
ATOM     19  C   UNL d   1      11.586   9.915  -3.909  0.00  0.00     0.024 A 
ATOM     20  O   UNL d   1      12.341   8.034  -2.510  0.00  0.00    -0.331 OA
ATOM     21  C   UNL d   1      11.062  10.280  -5.163  0.00  0.00     0.002 A 
ATOM     22  C   UNL d   1      10.693   9.311  -6.117  0.00  0.00    -0.004 A 
ATOM     23  C   UNL d   1      12.412   6.614  -2.690  0.00  0.00     0.154 A 
ENDBRANCH  12  15
ENDBRANCH   8   9
ENDBRANCH   7   8
ENDBRANCH   4   7
BRANCH   1  24
ATOM     24  N   UNL d   1       8.962   2.023 -16.327  0.00  0.00    -0.236 NA
ATOM     25  C   UNL d   1       8.684   2.058 -17.634  0.00  0.00     0.276 C 
ATOM     26  O   UNL d   1       8.662   3.089 -18.311  0.00  0.00    -0.266 OA
BRANCH  25  27
ATOM     27  C   UNL d   1       8.378   0.736 -18.262  0.00  0.00     0.068 A 
ATOM     28  C   UNL d   1       7.360  -0.123 -17.752  0.00  0.00     0.063 A 
ATOM     29  C   UNL d   1       7.088  -1.339 -18.404  0.00  0.00     0.023 A 
ATOM     30 CL   UNL d   1       6.403   0.279 -16.367  0.00  0.00    -0.082 Cl
ATOM     31  C   UNL d   1       7.805  -1.709 -19.557  0.00  0.00     0.059 A 
ATOM     32  C   UNL d   1       8.798  -0.857 -20.072  0.00  0.00     0.012 A 
ATOM     33 CL   UNL d   1       7.460  -3.206 -20.340  0.00  0.00    -0.082 Cl
ATOM     34  C   UNL d   1       9.073   0.364 -19.430  0.00  0.00     0.006 A 
ENDBRANCH  25  27
ENDBRANCH   1  24
TORSDOF 6
