REMARK  4 active torsions:
REMARK  status: ('A' for Active; 'I' for Inactive)
REMARK    1  A    between atoms: C_7  and  C_8 
REMARK    2  A    between atoms: C_12  and  C_13 
REMARK    3  A    between atoms: C_13  and  N_14 
REMARK    4  A    between atoms: N_17  and  C_18 
ROOT
ATOM      1  N   UNL d   1       7.801  -1.659 -19.736  0.00  0.00    -0.191 NA
ATOM      2  C   UNL d   1       8.173  -1.031 -18.838  0.00  0.00     0.101 C 
ATOM      3  C   UNL d   1       8.643  -0.241 -17.712  0.00  0.00     0.068 A 
ATOM      4  C   UNL d   1      10.022  -0.006 -17.546  0.00  0.00     0.010 A 
ATOM      5  C   UNL d   1      10.476   0.754 -16.452  0.00  0.00     0.001 A 
ATOM      6  C   UNL d   1       9.553   1.277 -15.528  0.00  0.00     0.000 A 
ATOM      7  C   UNL d   1       8.169   1.052 -15.682  0.00  0.00     0.001 A 
ATOM      8  C   UNL d   1       7.722   0.287 -16.783  0.00  0.00     0.010 A 
ENDROOT
BRANCH   7   9
ATOM      9  C   UNL d   1       7.215   1.592 -14.698  0.00  0.00    -0.000 A 
ATOM     10  C   UNL d   1       7.326   2.920 -14.227  0.00  0.00    -0.002 A 
ATOM     11  C   UNL d   1       6.421   3.437 -13.272  0.00  0.00     0.011 A 
ATOM     12  C   UNL d   1       5.387   2.620 -12.787  0.00  0.00    -0.002 A 
ATOM     13  C   UNL d   1       5.278   1.290 -13.238  0.00  0.00    -0.000 A 
ATOM     14  C   UNL d   1       6.172   0.785 -14.191  0.00  0.00    -0.000 A 
BRANCH  11  15
ATOM     15  C   UNL d   1       6.552   4.870 -12.787  0.00  0.00     0.277 C 
BRANCH  15  16
ATOM     16  N   UNL d   1       7.880   5.180 -12.264  0.00  0.00     0.145 N 
ATOM     17  C   UNL d   1       7.883   4.706 -10.884  0.00  0.00     0.275 C 
ATOM     18  C   UNL d   1       9.237   4.936 -10.188  0.00  0.00     0.137 C 
ATOM     19  N   UNL d   1       9.562   6.348 -10.257  0.00  0.00    -0.343 N 
ATOM     20  C   UNL d   1       9.451   6.958 -11.574  0.00  0.00     0.137 C 
ATOM     21  C   UNL d   1       8.079   6.631 -12.213  0.00  0.00     0.275 C 
BRANCH  19  22
ATOM     22  C   UNL d   1       9.939   7.089  -9.130  0.00  0.00     0.081 A 
ATOM     23  C   UNL d   1      11.205   7.674  -9.041  0.00  0.00     0.137 A 
ATOM     24  C   UNL d   1      11.650   8.391  -7.910  0.00  0.00     0.110 A 
ATOM     25  O   UNL d   1      12.231   7.600  -9.948  0.00  0.00    -0.266 OA
ATOM     26  C   UNL d   1      10.759   8.579  -6.836  0.00  0.00     0.021 A 
ATOM     27  N   UNL d   1      12.963   8.754  -8.104  0.00  0.00    -0.196 NA
ATOM     28  C   UNL d   1       9.471   8.009  -6.906  0.00  0.00     0.003 A 
ATOM     29  C   UNL d   1       9.079   7.242  -8.029  0.00  0.00     0.019 A 
ATOM     30  C   UNL d   1      13.240   8.246  -9.313  0.00  0.00     0.323 A 
ATOM     31  O   UNL d   1      14.395   8.390 -10.009  0.00  0.00    -0.141 OA
ENDBRANCH  19  22
ENDBRANCH  15  16
ENDBRANCH  11  15
ENDBRANCH   7   9
TORSDOF 4
