REMARK  1 active torsions:
REMARK  status: ('A' for Active; 'I' for Inactive)
REMARK    1  A    between atoms: N_14  and  C_15 
ROOT
ATOM      1  C   UNL d   1       5.327   0.575 -13.588  0.00  0.00     0.038 C 
ATOM      2  C   UNL d   1       5.976   1.916 -13.524  0.00  0.00     0.003 A 
ATOM      3  S   UNL d   1       5.282   3.199 -12.583  0.00  0.00    -0.096 SA
ATOM      4  C   UNL d   1       6.556   4.291 -13.021  0.00  0.00     0.008 A 
ATOM      5  C   UNL d   1       6.457   5.726 -12.594  0.00  0.00     0.038 C 
ATOM      6  C   UNL d   1       7.531   3.651 -13.760  0.00  0.00     0.016 A 
ATOM      7  C   UNL d   1       7.158   2.309 -14.087  0.00  0.00    -0.019 A 
ATOM      8  C   UNL d   1       8.007   1.445 -14.972  0.00  0.00     0.027 C 
ATOM      9  C   UNL d   1       8.052   2.034 -16.391  0.00  0.00     0.009 C 
ATOM     10  C   UNL d   1       9.072   3.172 -16.626  0.00  0.00     0.030 C 
ATOM     11  C   UNL d   1       9.440   4.003 -15.418  0.00  0.00     0.016 A 
ATOM     12  C   UNL d   1      10.591   4.815 -15.296  0.00  0.00     0.118 A 
ATOM     13  N   UNL d   1      10.690   5.382 -14.111  0.00  0.00    -0.164 NA
ATOM     14  N   UNL d   1       9.584   5.027 -13.440  0.00  0.00    -0.230 N 
ATOM     15  C   UNL d   1       8.784   4.209 -14.226  0.00  0.00     0.080 A 
ENDROOT
BRANCH  14  16
ATOM     16  C   UNL d   1       9.453   5.429 -12.088  0.00  0.00     0.083 A 
ATOM     17  C   UNL d   1       9.456   6.785 -11.703  0.00  0.00     0.019 A 
ATOM     18  C   UNL d   1       9.465   7.130 -10.334  0.00  0.00     0.002 A 
ATOM     19  C   UNL d   1       9.367   6.129  -9.346  0.00  0.00     0.000 A 
ATOM     20  C   UNL d   1       9.356   4.775  -9.734  0.00  0.00     0.002 A 
ATOM     21  C   UNL d   1       9.425   4.434 -11.102  0.00  0.00     0.019 A 
ENDBRANCH  14  16
TORSDOF 1
