REMARK  4 active torsions:
REMARK  status: ('A' for Active; 'I' for Inactive)
REMARK    1  A    between atoms: O_2  and  C_3 
REMARK    2  A    between atoms: C_8  and  O_9 
REMARK    3  A    between atoms: N_12  and  C_13 
REMARK    4  A    between atoms: N_14  and  C_15 
ROOT
ATOM      1  C   UNL d   1       9.835   3.855 -13.098  0.00  0.00     0.175 C 
ATOM      2  N   UNL d   1       8.876   4.691 -12.903  0.00  0.00    -0.226 NA
ENDROOT
BRANCH   1   3
ATOM      3  N   UNL d   1       9.719   2.706 -13.870  0.00  0.00    -0.327 N 
ATOM      4  C   UNL d   1       8.433   2.156 -14.280  0.00  0.00     0.130 C 
ATOM      5  C   UNL d   1       8.413   1.689 -15.716  0.00  0.00    -0.002 A 
ATOM      6  C   UNL d   1       9.605   1.579 -16.454  0.00  0.00    -0.020 A 
ATOM      7  C   UNL d   1       7.183   1.369 -16.314  0.00  0.00     0.024 A 
ATOM      8  C   UNL d   1       9.564   1.159 -17.796  0.00  0.00     0.022 A 
ATOM      9  C   UNL d   1      10.947   1.920 -15.841  0.00  0.00     0.050 C 
ATOM     10  C   UNL d   1       8.326   0.840 -18.418  0.00  0.00     0.116 A 
ATOM     11  C   UNL d   1       7.129   0.925 -17.659  0.00  0.00     0.116 A 
ATOM     12  C   UNL d   1      10.884   1.947 -14.318  0.00  0.00     0.108 C 
BRANCH  10  13
ATOM     13  O   UNL d   1       8.222   0.431 -19.732  0.00  0.00    -0.326 OA
ATOM     14  C   UNL d   1       9.431   0.234 -20.458  0.00  0.00     0.181 C 
ENDBRANCH  10  13
BRANCH  11  15
ATOM     15  O   UNL d   1       5.940   0.606 -18.281  0.00  0.00    -0.326 OA
ATOM     16  C   UNL d   1       4.992  -0.120 -17.499  0.00  0.00     0.181 C 
ENDBRANCH  11  15
ENDBRANCH   1   3
BRANCH   2  17
ATOM     17  C   UNL d   1       9.127   5.788 -12.072  0.00  0.00     0.083 C 
ATOM     18  C   UNL d   1       9.683   5.670 -10.772  0.00  0.00     0.015 C 
ATOM     19  C   UNL d   1       9.956   6.850 -10.053  0.00  0.00    -0.014 C 
ATOM     20  C   UNL d   1       9.667   8.104 -10.579  0.00  0.00    -0.024 C 
ATOM     21  C   UNL d   1      10.492   6.970  -8.653  0.00  0.00     0.080 C 
ATOM     22  C   UNL d   1       9.063   8.240 -11.838  0.00  0.00    -0.003 C 
ATOM     23  C   UNL d   1       9.947   9.201  -9.588  0.00  0.00     0.038 C 
ATOM     24  C   UNL d   1       8.748   7.063 -12.545  0.00  0.00     0.019 C 
ATOM     25  C   UNL d   1      10.748   8.497  -8.489  0.00  0.00     0.066 C 
ATOM     26  S   UNL d   1      10.495   9.192  -6.819  0.00  0.00    -0.139 SA
ATOM     27  C   UNL d   1      11.077   7.759  -5.886  0.00  0.00     0.069 C 
ATOM     28  C   UNL d   1      10.123   6.574  -5.947  0.00  0.00     0.070 C 
ATOM     29  S   UNL d   1       9.220   6.390  -7.515  0.00  0.00    -0.135 SA
ENDBRANCH   2  17
TORSDOF 4
