REMARK  7 active torsions:
REMARK  status: ('A' for Active; 'I' for Inactive)
REMARK    1  A    between atoms: C_6  and  C_7 
REMARK    2  A    between atoms: C_10  and  S_11 
REMARK    3  A    between atoms: S_11  and  C_12 
REMARK    4  A    between atoms: C_12  and  C_13 
REMARK    5  A    between atoms: C_13  and  C_14 
REMARK    6  A    between atoms: C_14  and  N_15 
REMARK    7  A    between atoms: C_22  and  C_23 
ROOT
ATOM      1  C   UNL d   1       8.019  -1.780 -21.442  0.00  0.00     0.036 C 
ENDROOT
BRANCH   1   2
ATOM      2  C   UNL d   1       7.484  -3.174 -21.051  0.00  0.00     0.067 C 
BRANCH   2   3
ATOM      3  S   UNL d   1       5.665  -3.287 -21.088  0.00  0.00    -0.075 SA
BRANCH   3   4
ATOM      4  C   UNL d   1       5.295  -2.033 -19.907  0.00  0.00     0.193 A 
ATOM      5  N   UNL d   1       4.954  -0.792 -20.246  0.00  0.00    -0.122 NA
ATOM      6  N   UNL d   1       4.840  -0.103 -19.063  0.00  0.00    -0.128 NA
ATOM      7  C   UNL d   1       5.096  -0.997 -18.100  0.00  0.00     0.167 A 
ATOM      8  N   UNL d   1       5.393  -2.225 -18.575  0.00  0.00    -0.289 N 
ATOM      9  C   UNL d   1       5.702  -3.436 -17.835  0.00  0.00     0.134 C 
BRANCH   7  10
ATOM     10  C   UNL d   1       5.037  -0.654 -16.688  0.00  0.00     0.037 A 
ATOM     11  C   UNL d   1       5.960   0.239 -16.080  0.00  0.00     0.021 A 
ATOM     12  C   UNL d   1       7.018   0.835 -16.805  0.00  0.00     0.003 A 
ATOM     13  C   UNL d   1       5.827   0.562 -14.699  0.00  0.00     0.081 A 
ATOM     14  C   UNL d   1       7.888   1.724 -16.146  0.00  0.00     0.015 A 
ATOM     15  C   UNL d   1       7.667   1.984 -14.782  0.00  0.00     0.059 A 
ATOM     16  C   UNL d   1       8.568   2.932 -14.019  0.00  0.00     0.052 C 
ATOM     17  N   UNL d   1       6.663   1.425 -14.079  0.00  0.00    -0.250 NA
ATOM     18  C   UNL d   1       4.773  -0.010 -13.965  0.00  0.00     0.019 A 
ATOM     19  C   UNL d   1       3.854  -0.888 -14.567  0.00  0.00     0.002 A 
ATOM     20  C   UNL d   1       3.997  -1.217 -15.925  0.00  0.00     0.003 A 
ENDBRANCH   7  10
ENDBRANCH   3   4
ENDBRANCH   2   3
ENDBRANCH   1   2
BRANCH   1  21
ATOM     21  C   UNL d   1       9.496  -1.634 -21.101  0.00  0.00     0.098 C 
BRANCH  21  22
ATOM     22  N   UNL d   1       9.974  -0.301 -21.458  0.00  0.00    -0.368 N 
ATOM     23  C   UNL d   1      10.607   0.457 -20.375  0.00  0.00     0.102 C 
ATOM     24  C   UNL d   1      11.952  -0.114 -19.884  0.00  0.00     0.050 C 
ATOM     25  C   UNL d   1      13.127   0.209 -20.794  0.00  0.00    -0.022 A 
ATOM     26  C   UNL d   1      13.155  -0.214 -22.151  0.00  0.00    -0.022 A 
ATOM     27  C   UNL d   1      14.215   0.947 -20.273  0.00  0.00     0.022 A 
ATOM     28  C   UNL d   1      12.014  -1.007 -22.756  0.00  0.00     0.050 C 
ATOM     29  C   UNL d   1      14.266   0.090 -22.972  0.00  0.00     0.017 A 
ATOM     30  C   UNL d   1      10.663  -0.258 -22.741  0.00  0.00     0.102 C 
ATOM     31  C   UNL d   1      15.353   0.824 -22.462  0.00  0.00     0.106 A 
ATOM     32  C   UNL d   1      15.296   1.240 -21.117  0.00  0.00     0.119 A 
ATOM     33  N   UNL d   1      16.539   1.247 -23.029  0.00  0.00    -0.219 NA
ATOM     34  O   UNL d   1      16.450   1.948 -20.841  0.00  0.00    -0.287 OA
ATOM     35  C   UNL d   1      17.124   1.933 -22.035  0.00  0.00     0.221 A 
BRANCH  35  36
ATOM     36  C   UNL d   1      18.474   2.583 -22.095  0.00  0.00     0.320 C 
ATOM     37  C   UNL d   1      19.595   1.602 -21.741  0.00  0.00     0.081 C 
ATOM     38  F   UNL d   1      18.698   3.060 -23.320  0.00  0.00    -0.196 F 
ATOM     39  F   UNL d   1      18.530   3.606 -21.241  0.00  0.00    -0.196 F 
ENDBRANCH  35  36
ENDBRANCH  21  22
ENDBRANCH   1  21
TORSDOF 7
