REMARK  7 active torsions:
REMARK  status: ('A' for Active; 'I' for Inactive)
REMARK    1  A    between atoms: C_2  and  C_4 
REMARK    2  A    between atoms: C_2  and  S_17 
REMARK    3  A    between atoms: C_4  and  C_5 
REMARK    4  A    between atoms: C_5  and  C_6 
REMARK    5  A    between atoms: C_6  and  N_7 
REMARK    6  A    between atoms: C_11  and  C_12 
REMARK    7  A    between atoms: S_17  and  C_20 
ROOT
ATOM      1  C   UNL d   1      10.907   6.706  -9.563  0.00  0.00     0.017 C 
ENDROOT
BRANCH   1   2
ATOM      2  C   UNL d   1      10.665   7.766  -8.442  0.00  0.00     0.099 C 
ATOM      3  C   UNL d   1      11.839   8.761  -8.422  0.00  0.00     0.016 C 
ATOM      4  C   UNL d   1       9.286   8.432  -8.645  0.00  0.00     0.016 C 
BRANCH   2   5
ATOM      5  S   UNL d   1      10.626   6.851  -6.811  0.00  0.00     0.188 S 
ATOM      6  O   UNL d   1       9.234   6.397  -6.599  0.00  0.00    -0.222 OA
ATOM      7  O   UNL d   1      11.758   5.928  -6.793  0.00  0.00    -0.222 OA
BRANCH   5   8
ATOM      8  C   UNL d   1      11.013   7.950  -5.495  0.00  0.00     0.084 A 
ATOM      9  C   UNL d   1      10.540   9.255  -5.532  0.00  0.00     0.011 A 
ATOM     10  C   UNL d   1      10.959  10.168  -4.575  0.00  0.00     0.001 A 
ATOM     11  C   UNL d   1      11.805   9.739  -3.527  0.00  0.00     0.000 A 
ATOM     12  C   UNL d   1      12.253   8.411  -3.466  0.00  0.00     0.001 A 
ATOM     13  C   UNL d   1      11.868   7.490  -4.452  0.00  0.00     0.011 A 
ENDBRANCH   5   8
ENDBRANCH   2   5
ENDBRANCH   1   2
BRANCH   1  14
ATOM     14  C   UNL d   1      10.029   6.760 -10.809  0.00  0.00     0.036 C 
BRANCH  14  15
ATOM     15  C   UNL d   1       8.772   5.880 -10.761  0.00  0.00     0.250 C 
BRANCH  15  16
ATOM     16  N   UNL d   1       8.367   5.368 -12.063  0.00  0.00     0.137 N 
ATOM     17  C   UNL d   1       9.451   4.724 -12.800  0.00  0.00     0.259 C 
ATOM     18  C   UNL d   1       9.032   4.233 -14.167  0.00  0.00     0.129 C 
ATOM     19  C   UNL d   1       7.878   3.243 -14.025  0.00  0.00     0.013 C 
ATOM     20  C   UNL d   1       6.762   3.863 -13.152  0.00  0.00     0.036 C 
ATOM     21  C   UNL d   1       7.288   4.418 -11.837  0.00  0.00     0.250 C 
BRANCH  18  22
ATOM     22  C   UNL d   1      10.254   3.635 -14.892  0.00  0.00     0.400 C 
ATOM     23  F   UNL d   1      10.740   2.590 -14.219  0.00  0.00    -0.170 F 
ATOM     24  F   UNL d   1       9.912   3.247 -16.117  0.00  0.00    -0.170 F 
ATOM     25  F   UNL d   1      11.227   4.542 -14.998  0.00  0.00    -0.170 F 
ENDBRANCH  18  22
ENDBRANCH  15  16
ENDBRANCH  14  15
ENDBRANCH   1  14
TORSDOF 7
