REMARK  10 active torsions:
REMARK  status: ('A' for Active; 'I' for Inactive)
REMARK    1  A    between atoms: O_2  and  C_3 
REMARK    2  A    between atoms: C_8  and  N_9 
REMARK    3  A    between atoms: N_9  and  C_10 
REMARK    4  A    between atoms: N_13  and  C_14 
REMARK    5  A    between atoms: C_14  and  C_15 
REMARK    6  A    between atoms: C_15  and  C_16 
REMARK    7  A    between atoms: C_16  and  C_17 
REMARK    8  A    between atoms: C_17  and  N_18 
REMARK       I    between atoms: N_18  and  C_19 
REMARK    9  A    between atoms: C_19  and  C_21 
REMARK   10  A    between atoms: C_22  and  C_23 
ROOT
ATOM      1  C   UNL d   1       6.509   1.853 -14.443  0.00  0.00     0.107 C 
ATOM      2  C   UNL d   1       7.891   2.499 -14.324  0.00  0.00     0.060 C 
ATOM      3  C   UNL d   1       7.794   3.938 -13.796  0.00  0.00     0.252 C 
ATOM      4  N   UNL d   1       7.133   3.982 -12.495  0.00  0.00     0.137 N 
ATOM      5  C   UNL d   1       5.756   3.484 -12.639  0.00  0.00     0.252 C 
ATOM      6  C   UNL d   1       5.718   2.022 -13.139  0.00  0.00     0.060 C 
ENDROOT
BRANCH   4   7
ATOM      7  C   UNL d   1       7.105   5.340 -11.966  0.00  0.00     0.250 C 
BRANCH   7   8
ATOM      8  C   UNL d   1       8.487   5.999 -11.852  0.00  0.00     0.037 C 
BRANCH   8   9
ATOM      9  C   UNL d   1       8.992   6.063 -10.417  0.00  0.00     0.029 C 
BRANCH   9  10
ATOM     10  C   UNL d   1      10.209   6.979 -10.339  0.00  0.00     0.129 C 
BRANCH  10  11
ATOM     11  N   UNL d   1      10.333   7.535  -9.014  0.00  0.00    -0.234 NA
ATOM     12  C   UNL d   1      10.820   8.761  -8.743  0.00  0.00     0.275 C 
ATOM     13  O   UNL d   1      11.062   9.586  -9.613  0.00  0.00    -0.266 OA
BRANCH  12  14
ATOM     14  C   UNL d   1      11.026   8.973  -7.324  0.00  0.00     0.062 C 
ATOM     15  C   UNL d   1      11.302   7.944  -6.489  0.00  0.00     0.005 C 
BRANCH  15  16
ATOM     16  C   UNL d   1      11.515   8.013  -5.047  0.00  0.00     0.000 A 
ATOM     17  C   UNL d   1      11.640   6.795  -4.343  0.00  0.00     0.000 A 
ATOM     18  C   UNL d   1      11.879   6.791  -2.958  0.00  0.00     0.000 A 
ATOM     19  C   UNL d   1      12.001   8.013  -2.277  0.00  0.00     0.000 A 
ATOM     20  C   UNL d   1      11.871   9.231  -2.967  0.00  0.00     0.000 A 
ATOM     21  C   UNL d   1      11.630   9.236  -4.352  0.00  0.00     0.000 A 
ENDBRANCH  15  16
ENDBRANCH  12  14
ENDBRANCH  10  11
ENDBRANCH   9  10
ENDBRANCH   8   9
ENDBRANCH   7   8
ENDBRANCH   4   7
BRANCH   1  22
ATOM     22  N   UNL d   1       6.619   0.442 -14.803  0.00  0.00    -0.271 NA
BRANCH  22  23
ATOM     23  C   UNL d   1       5.910  -0.040 -15.913  0.00  0.00     0.098 A 
ATOM     24  C   UNL d   1       6.182   0.432 -17.219  0.00  0.00     0.111 A 
ATOM     25  C   UNL d   1       5.464  -0.113 -18.315  0.00  0.00     0.026 A 
ATOM     26  C   UNL d   1       4.491  -1.108 -18.102  0.00  0.00     0.002 A 
ATOM     27  C   UNL d   1       4.225  -1.569 -16.801  0.00  0.00     0.002 A 
ATOM     28  C   UNL d   1       4.935  -1.041 -15.708  0.00  0.00     0.021 A 
BRANCH  24  29
ATOM     29  O   UNL d   1       7.151   1.408 -17.365  0.00  0.00    -0.327 OA
ATOM     30  C   UNL d   1       7.727   1.596 -18.646  0.00  0.00     0.181 C 
ENDBRANCH  24  29
ENDBRANCH  22  23
ENDBRANCH   1  22
TORSDOF 10
