REMARK  4 active torsions:
REMARK  status: ('A' for Active; 'I' for Inactive)
REMARK       I    between atoms: C_2  and  N_4 
REMARK    1  A    between atoms: N_4  and  C_5 
REMARK    2  A    between atoms: C_9  and  C_10 
REMARK    3  A    between atoms: N_16  and  S_17 
REMARK    4  A    between atoms: S_17  and  C_20 
ROOT
ATOM      1  C   UNL d   1       8.688   2.979 -14.051  0.00  0.00     0.021 A 
ATOM      2  C   UNL d   1      10.098   2.864 -14.103  0.00  0.00     0.002 A 
ATOM      3  C   UNL d   1      10.720   2.004 -15.025  0.00  0.00     0.002 A 
ATOM      4  C   UNL d   1       9.956   1.235 -15.924  0.00  0.00     0.018 A 
ATOM      5  C   UNL d   1      10.289   0.307 -16.965  0.00  0.00     0.021 A 
ATOM      6  C   UNL d   1       9.118  -0.138 -17.506  0.00  0.00     0.092 A 
ATOM      7  N   UNL d   1       8.040   0.470 -16.842  0.00  0.00    -0.231 N 
ATOM      8  C   UNL d   1       8.539   1.333 -15.853  0.00  0.00     0.075 A 
ATOM      9  C   UNL d   1       7.912   2.184 -14.923  0.00  0.00     0.020 A 
ENDROOT
BRANCH   1  10
ATOM     10  C   UNL d   1       8.062   3.901 -13.098  0.00  0.00     0.114 A 
ATOM     11  C   UNL d   1       6.751   4.333 -12.976  0.00  0.00     0.096 A 
ATOM     12  N   UNL d   1       6.739   5.175 -11.877  0.00  0.00    -0.062 NA
ATOM     13  C   UNL d   1       5.511   4.036 -13.755  0.00  0.00     0.054 C 
ATOM     14  C   UNL d   1       7.966   5.182 -11.373  0.00  0.00     0.752 A 
ATOM     15  N   UNL d   1       8.825   4.453 -12.060  0.00  0.00    -0.058 NA
BRANCH  14  16
ATOM     16  N   UNL d   1       8.267   5.975 -10.240  0.00  0.00    -0.023 NA
ATOM     17  C   UNL d   1       9.139   5.712  -9.259  0.00  0.00     0.273 C 
ATOM     18  C   UNL d   1       9.267   6.793  -8.188  0.00  0.00     0.101 C 
ATOM     19  O   UNL d   1       9.794   4.678  -9.175  0.00  0.00    -0.270 OA
ENDBRANCH  14  16
ENDBRANCH   1  10
BRANCH   7  20
ATOM     20  S   UNL d   1       6.347   0.241 -17.212  0.00  0.00     0.271 S 
ATOM     21  O   UNL d   1       5.627   0.327 -15.937  0.00  0.00    -0.200 OA
ATOM     22  O   UNL d   1       6.052   1.183 -18.305  0.00  0.00    -0.200 OA
BRANCH  20  23
ATOM     23  C   UNL d   1       6.201  -1.434 -17.846  0.00  0.00     0.104 A 
ATOM     24  C   UNL d   1       5.375  -2.372 -17.187  0.00  0.00     0.013 A 
ATOM     25  C   UNL d   1       5.325  -3.705 -17.659  0.00  0.00     0.001 A 
ATOM     26  C   UNL d   1       6.137  -4.102 -18.746  0.00  0.00     0.000 A 
ATOM     27  C   UNL d   1       6.951  -3.154 -19.398  0.00  0.00     0.001 A 
ATOM     28  C   UNL d   1       6.931  -1.813 -18.990  0.00  0.00     0.013 A 
ENDBRANCH  20  23
ENDBRANCH   7  20
TORSDOF 4
