REMARK  3 active torsions:
REMARK  status: ('A' for Active; 'I' for Inactive)
REMARK    1  A    between atoms: C_2  and  O_3 
REMARK    2  A    between atoms: O_3  and  C_4 
REMARK    3  A    between atoms: C_4  and  C_6 
ROOT
ATOM      1  C   UNL d   1      10.983   8.201  -5.641  0.00  0.00     0.063 A 
ATOM      2  C   UNL d   1      11.185   9.450  -5.006  0.00  0.00     0.006 A 
ATOM      3  C   UNL d   1      11.739   9.506  -3.711  0.00  0.00     0.014 A 
ATOM      4  C   UNL d   1      12.109   8.326  -3.042  0.00  0.00     0.070 A 
ATOM      5  N   UNL d   1      12.655   8.396  -1.765  0.00  0.00    -0.101 NA
ATOM      6  C   UNL d   1      11.902   7.082  -3.661  0.00  0.00     0.014 A 
ATOM      7  C   UNL d   1      11.347   7.019  -4.955  0.00  0.00     0.006 A 
ENDROOT
BRANCH   1   8
ATOM      8  C   UNL d   1      10.378   8.167  -7.003  0.00  0.00     0.296 C 
ATOM      9  O   UNL d   1      10.134   9.184  -7.652  0.00  0.00    -0.259 OA
BRANCH   8  10
ATOM     10  O   UNL d   1      10.124   6.912  -7.436  0.00  0.00    -0.298 OA
BRANCH  10  11
ATOM     11  C   UNL d   1       9.517   6.709  -8.702  0.00  0.00     0.152 C 
ATOM     12  C   UNL d   1       9.061   5.253  -8.822  0.00  0.00     0.035 C 
ENDBRANCH  10  11
ENDBRANCH   8  10
ENDBRANCH   1   8
TORSDOF 3
