REMARK  9 active torsions:
REMARK  status: ('A' for Active; 'I' for Inactive)
REMARK    1  A    between atoms: O_2  and  C_3 
REMARK    2  A    between atoms: C_8  and  N_9 
REMARK    3  A    between atoms: N_15  and  C_16 
REMARK    4  A    between atoms: C_16  and  C_17 
REMARK    5  A    between atoms: C_17  and  C_18 
REMARK    6  A    between atoms: C_18  and  S_19 
REMARK    7  A    between atoms: S_19  and  C_20 
REMARK    8  A    between atoms: C_23  and  C_24 
REMARK    9  A    between atoms: C_27  and  C_28 
ROOT
ATOM      1  C   UNL d   1      10.190  -0.390 -16.869  0.00  0.00     0.251 C 
ENDROOT
BRANCH   1   2
ATOM      2  N   UNL d   1       9.337   0.710 -16.420  0.00  0.00     0.137 N 
ATOM      3  C   UNL d   1       9.343   0.682 -14.962  0.00  0.00     0.250 C 
ATOM      4  C   UNL d   1       8.440   1.783 -14.436  0.00  0.00     0.035 C 
ATOM      5  C   UNL d   1       8.847   3.199 -14.878  0.00  0.00     0.008 C 
ATOM      6  C   UNL d   1       7.793   4.222 -14.359  0.00  0.00     0.024 C 
ATOM      7  C   UNL d   1       8.907   3.142 -16.418  0.00  0.00     0.035 C 
ATOM      8  C   UNL d   1      10.223   3.618 -14.296  0.00  0.00     0.024 C 
ATOM      9  C   UNL d   1       7.761   4.414 -12.838  0.00  0.00     0.102 C 
ATOM     10  N   UNL d   1       9.101   4.706 -12.392  0.00  0.00    -0.347 N 
ATOM     11  C   UNL d   1      10.154   3.774 -12.775  0.00  0.00     0.102 C 
ATOM     12  C   UNL d   1       9.834   2.012 -16.896  0.00  0.00     0.250 C 
BRANCH  10  13
ATOM     13  C   UNL d   1       9.327   5.809 -11.573  0.00  0.00     0.079 A 
ATOM     14  C   UNL d   1       9.528   5.634 -10.193  0.00  0.00     0.110 A 
ATOM     15  C   UNL d   1       9.806   6.757  -9.380  0.00  0.00     0.026 A 
ATOM     16  C   UNL d   1       9.841   8.045  -9.949  0.00  0.00     0.002 A 
ATOM     17  C   UNL d   1       9.596   8.217 -11.325  0.00  0.00     0.002 A 
ATOM     18  C   UNL d   1       9.337   7.094 -12.135  0.00  0.00     0.019 A 
BRANCH  14  19
ATOM     19  O   UNL d   1       9.483   4.352  -9.713  0.00  0.00    -0.327 OA
ATOM     20  C   UNL d   1       8.924   4.159  -8.434  0.00  0.00     0.181 C 
ENDBRANCH  14  19
ENDBRANCH  10  13
ENDBRANCH   1   2
BRANCH   1  21
ATOM     21  C   UNL d   1       9.649  -0.967 -18.194  0.00  0.00     0.047 C 
BRANCH  21  22
ATOM     22  C   UNL d   1       9.999  -0.177 -19.482  0.00  0.00     0.067 C 
BRANCH  22  23
ATOM     23  S   UNL d   1      11.789  -0.267 -19.912  0.00  0.00    -0.075 SA
BRANCH  23  24
ATOM     24  C   UNL d   1      12.392   1.244 -19.249  0.00  0.00     0.193 A 
ATOM     25  N   UNL d   1      12.766   2.285 -20.036  0.00  0.00    -0.289 N 
ATOM     26  C   UNL d   1      13.034   3.239 -19.106  0.00  0.00     0.167 A 
ATOM     27  C   UNL d   1      12.843   2.328 -21.509  0.00  0.00     0.134 C 
ATOM     28  N   UNL d   1      12.919   2.808 -17.854  0.00  0.00    -0.128 NA
ATOM     29  N   UNL d   1      12.483   1.509 -17.942  0.00  0.00    -0.122 NA
BRANCH  26  30
ATOM     30  C   UNL d   1      13.492   4.604 -19.389  0.00  0.00     0.036 A 
ATOM     31  C   UNL d   1      12.891   5.721 -18.765  0.00  0.00     0.003 A 
ATOM     32  C   UNL d   1      13.372   7.025 -19.008  0.00  0.00     0.004 A 
ATOM     33  C   UNL d   1      14.460   7.214 -19.895  0.00  0.00     0.041 A 
ATOM     34  C   UNL d   1      15.082   6.095 -20.495  0.00  0.00     0.004 A 
ATOM     35  C   UNL d   1      14.619   4.799 -20.218  0.00  0.00     0.003 A 
BRANCH  33  36
ATOM     36  C   UNL d   1      14.962   8.537 -20.190  0.00  0.00     0.182 A 
ATOM     37  O   UNL d   1      14.370   9.590 -19.577  0.00  0.00    -0.286 OA
ATOM     38  C   UNL d   1      15.059  10.668 -20.038  0.00  0.00     0.145 A 
ATOM     39  C   UNL d   1      16.031  10.256 -20.909  0.00  0.00     0.128 A 
ATOM     40  N   UNL d   1      15.966   8.877 -20.993  0.00  0.00    -0.218 NA
ENDBRANCH  33  36
ENDBRANCH  26  30
ENDBRANCH  23  24
ENDBRANCH  22  23
ENDBRANCH  21  22
ENDBRANCH   1  21
TORSDOF 9
