REMARK  7 active torsions:
REMARK  status: ('A' for Active; 'I' for Inactive)
REMARK    1  A    between atoms: C_4  and  C_5 
REMARK    2  A    between atoms: C_12  and  C_13 
REMARK       I    between atoms: C_13  and  N_15 
REMARK    3  A    between atoms: N_15  and  C_16 
REMARK    4  A    between atoms: C_16  and  C_17 
REMARK    5  A    between atoms: C_17  and  C_18 
REMARK    6  A    between atoms: C_18  and  N_19 
REMARK    7  A    between atoms: N_22  and  C_23 
ROOT
ATOM      1  C   UNL d   1       8.625   6.586 -11.947  0.00  0.00     0.131 C 
ENDROOT
BRANCH   1   2
ATOM      2  N   UNL d   1       9.479   6.928 -10.809  0.00  0.00    -0.234 NA
ATOM      3  C   UNL d   1       9.498   6.366  -9.586  0.00  0.00     0.276 C 
ATOM      4  O   UNL d   1       8.924   5.305  -9.327  0.00  0.00    -0.266 OA
BRANCH   3   5
ATOM      5  C   UNL d   1      10.232   7.111  -8.533  0.00  0.00     0.073 A 
ATOM      6  C   UNL d   1      11.016   8.222  -8.738  0.00  0.00     0.064 A 
ATOM      7  C   UNL d   1      11.374   9.007  -9.955  0.00  0.00     0.052 C 
ATOM      8  N   UNL d   1      11.508   8.596  -7.502  0.00  0.00    -0.250 NA
ATOM      9  C   UNL d   1      11.057   7.744  -6.516  0.00  0.00     0.081 A 
ATOM     10  C   UNL d   1      10.265   6.814  -7.139  0.00  0.00     0.025 A 
BRANCH   9  11
ATOM     11  C   UNL d   1      11.456   7.915  -5.124  0.00  0.00     0.018 A 
ATOM     12  C   UNL d   1      11.593   6.790  -4.281  0.00  0.00     0.002 A 
ATOM     13  C   UNL d   1      11.986   6.943  -2.939  0.00  0.00     0.000 A 
ATOM     14  C   UNL d   1      12.236   8.228  -2.427  0.00  0.00     0.000 A 
ATOM     15  C   UNL d   1      12.082   9.358  -3.251  0.00  0.00     0.000 A 
ATOM     16  C   UNL d   1      11.699   9.198  -4.596  0.00  0.00     0.002 A 
ENDBRANCH   9  11
ENDBRANCH   3   5
ENDBRANCH   1   2
BRANCH   1  17
ATOM     17  C   UNL d   1       8.489   5.084 -12.180  0.00  0.00     0.062 C 
BRANCH  17  18
ATOM     18  C   UNL d   1       7.549   4.767 -13.343  0.00  0.00     0.253 C 
BRANCH  18  19
ATOM     19  N   UNL d   1       7.348   3.317 -13.398  0.00  0.00     0.141 N 
ATOM     20  C   UNL d   1       5.939   2.967 -13.575  0.00  0.00     0.274 C 
ATOM     21  C   UNL d   1       5.743   1.424 -13.607  0.00  0.00     0.137 C 
ATOM     22  N   UNL d   1       6.622   0.820 -14.615  0.00  0.00    -0.344 N 
ATOM     23  C   UNL d   1       8.032   1.184 -14.493  0.00  0.00     0.137 C 
ATOM     24  C   UNL d   1       8.185   2.720 -14.435  0.00  0.00     0.274 C 
BRANCH  22  25
ATOM     25  C   UNL d   1       6.133   0.051 -15.662  0.00  0.00     0.068 A 
ATOM     26  C   UNL d   1       6.410   0.331 -17.035  0.00  0.00     0.084 A 
ATOM     27  C   UNL d   1       5.904  -0.504 -18.055  0.00  0.00     0.070 A 
ATOM     28 CL   UNL d   1       7.348   1.700 -17.524  0.00  0.00    -0.080 Cl
ATOM     29  C   UNL d   1       5.124  -1.626 -17.730  0.00  0.00     0.012 A 
ATOM     30 CL   UNL d   1       6.216  -0.155 -19.717  0.00  0.00    -0.081 Cl
ATOM     31  C   UNL d   1       4.840  -1.908 -16.385  0.00  0.00     0.002 A 
ATOM     32  C   UNL d   1       5.332  -1.080 -15.363  0.00  0.00     0.018 A 
ENDBRANCH  22  25
ENDBRANCH  18  19
ENDBRANCH  17  18
ENDBRANCH   1  17
TORSDOF 7
