REMARK  6 active torsions:
REMARK  status: ('A' for Active; 'I' for Inactive)
REMARK    1  A    between atoms: O_2  and  C_3 
REMARK    2  A    between atoms: C_3  and  C_5 
REMARK    3  A    between atoms: C_13  and  C_14 
REMARK    4  A    between atoms: C_14  and  N_15 
REMARK    5  A    between atoms: C_18  and  C_19 
REMARK    6  A    between atoms: C_19  and  C_21 
ROOT
ATOM      1  N   UNL d   1       9.053   5.410 -12.188  0.00  0.00     0.137 N 
ATOM      2  C   UNL d   1       9.270   4.898 -10.835  0.00  0.00     0.251 C 
ATOM      3  C   UNL d   1      10.089   5.901 -10.008  0.00  0.00     0.043 C 
ATOM      4  C   UNL d   1       9.408   7.263  -9.904  0.00  0.00     0.066 C 
ATOM      5  C   UNL d   1       9.062   7.721 -11.355  0.00  0.00     0.043 C 
ATOM      6  C   UNL d   1       8.273   6.645 -12.118  0.00  0.00     0.251 C 
ENDROOT
BRANCH   1   7
ATOM      7  C   UNL d   1       8.330   4.432 -12.994  0.00  0.00     0.251 C 
BRANCH   7   8
ATOM      8  C   UNL d   1       9.315   3.572 -13.810  0.00  0.00     0.048 C 
ATOM      9  C   UNL d   1       8.564   2.367 -14.436  0.00  0.00     0.072 C 
ATOM     10  C   UNL d   1       9.441   1.493 -15.369  0.00  0.00     0.175 C 
ATOM     11  C   UNL d   1      10.449   2.220 -16.160  0.00  0.00     0.060 A 
ATOM     12  O   UNL d   1       9.252   0.280 -15.433  0.00  0.00    -0.291 OA
ATOM     13  C   UNL d   1      11.354   1.862 -17.226  0.00  0.00     0.092 A 
ATOM     14  C   UNL d   1      10.685   3.523 -15.886  0.00  0.00     0.081 A 
ATOM     15  C   UNL d   1      12.043   3.013 -17.488  0.00  0.00     0.128 A 
ATOM     16  O   UNL d   1      11.643   4.046 -16.693  0.00  0.00    -0.309 OA
ATOM     17  C   UNL d   1      10.054   4.418 -14.877  0.00  0.00     0.054 C 
BRANCH  13  18
ATOM     18  C   UNL d   1      11.577   0.602 -17.962  0.00  0.00     0.298 C 
ATOM     19  O   UNL d   1      10.880  -0.405 -17.800  0.00  0.00    -0.259 OA
BRANCH  18  20
ATOM     20  O   UNL d   1      12.618   0.668 -18.816  0.00  0.00    -0.296 OA
ATOM     21  C   UNL d   1      12.948  -0.464 -19.602  0.00  0.00     0.185 C 
ENDBRANCH  18  20
ENDBRANCH  13  18
ENDBRANCH   7   8
ENDBRANCH   1   7
BRANCH   4  22
ATOM     22  C   UNL d   1      10.264   8.305  -9.166  0.00  0.00     0.173 C 
ATOM     23  O   UNL d   1      10.739   9.254  -9.787  0.00  0.00    -0.291 OA
BRANCH  22  24
ATOM     24  C   UNL d   1      10.522   8.122  -7.715  0.00  0.00     0.035 A 
ATOM     25  C   UNL d   1       9.985   7.047  -6.971  0.00  0.00     0.005 A 
ATOM     26  C   UNL d   1      10.361   6.870  -5.632  0.00  0.00     0.030 A 
ATOM     27  C   UNL d   1      11.200   7.803  -4.993  0.00  0.00     0.140 A 
ATOM     28  C   UNL d   1      11.674   8.918  -5.703  0.00  0.00     0.030 A 
ATOM     29  F   UNL d   1      11.519   7.642  -3.686  0.00  0.00    -0.204 F 
ATOM     30  C   UNL d   1      11.353   9.061  -7.064  0.00  0.00     0.005 A 
ENDBRANCH  22  24
ENDBRANCH   4  22
TORSDOF 6
