REMARK  8 active torsions:
REMARK  status: ('A' for Active; 'I' for Inactive)
REMARK    1  A    between atoms: O_2  and  C_3 
REMARK    2  A    between atoms: C_9  and  C_10 
REMARK    3  A    between atoms: C_12  and  C_13 
REMARK    4  A    between atoms: C_13  and  N_14 
REMARK    5  A    between atoms: N_14  and  C_15 
REMARK    6  A    between atoms: C_15  and  C_16 
REMARK    7  A    between atoms: N_19  and  C_20 
REMARK    8  A    between atoms: C_20  and  C_21 
ROOT
ATOM      1  C   UNL d   1       8.153   5.273 -12.760  0.00  0.00     0.337 C 
ENDROOT
BRANCH   1   2
ATOM      2  C   UNL d   1       8.364   4.101 -13.653  0.00  0.00     0.116 A 
ATOM      3  N   UNL d   1       7.346   3.244 -14.031  0.00  0.00    -0.227 NA
ATOM      4  C   UNL d   1       7.848   2.282 -14.824  0.00  0.00     0.164 A 
ATOM      5  N   UNL d   1       9.163   2.452 -14.971  0.00  0.00    -0.224 NA
ATOM      6  C   UNL d   1       9.495   3.596 -14.249  0.00  0.00     0.117 A 
BRANCH   4   7
ATOM      7  C   UNL d   1       7.057   1.201 -15.428  0.00  0.00     0.059 A 
ATOM      8  C   UNL d   1       7.420   0.622 -16.677  0.00  0.00     0.097 A 
ATOM      9  C   UNL d   1       6.597  -0.398 -17.223  0.00  0.00     0.025 A 
ATOM     10  C   UNL d   1       5.436  -0.825 -16.557  0.00  0.00     0.009 A 
ATOM     11  C   UNL d   1       5.076  -0.245 -15.331  0.00  0.00     0.035 A 
ATOM     12 BR   UNL d   1       3.491  -0.810 -14.441  0.00  0.00    -0.049 Br
ATOM     13  C   UNL d   1       5.880   0.766 -14.773  0.00  0.00     0.012 A 
BRANCH   8  14
ATOM     14  O   UNL d   1       8.553   1.085 -17.315  0.00  0.00    -0.328 OA
ATOM     15  C   UNL d   1       8.985   0.447 -18.506  0.00  0.00     0.181 C 
ENDBRANCH   8  14
ENDBRANCH   4   7
ENDBRANCH   1   2
BRANCH   1  16
ATOM     16  N   UNL d   1       9.180   5.352 -11.733  0.00  0.00     0.346 N 
BRANCH  16  17
ATOM     17  C   UNL d   1       8.691   6.141 -10.619  0.00  0.00     0.293 C 
BRANCH  17  18
ATOM     18  C   UNL d   1       9.593   5.966  -9.388  0.00  0.00     0.071 C 
ATOM     19  C   UNL d   1      10.421   7.218  -9.064  0.00  0.00     0.253 C 
ATOM     20  N   UNL d   1      10.546   7.170  -7.616  0.00  0.00     0.141 N 
ATOM     21  C   UNL d   1       9.208   6.817  -7.163  0.00  0.00     0.251 C 
ATOM     22  C   UNL d   1       8.803   5.701  -8.108  0.00  0.00     0.039 C 
BRANCH  20  23
ATOM     23  C   UNL d   1      10.995   8.437  -7.050  0.00  0.00     0.277 C 
BRANCH  23  24
ATOM     24  C   UNL d   1      11.322   8.372  -5.563  0.00  0.00     0.011 A 
ATOM     25  C   UNL d   1      11.472   9.570  -4.833  0.00  0.00    -0.002 A 
ATOM     26  C   UNL d   1      11.813   9.526  -3.464  0.00  0.00    -0.000 A 
ATOM     27  C   UNL d   1      12.007   8.291  -2.820  0.00  0.00    -0.000 A 
ATOM     28  C   UNL d   1      11.860   7.092  -3.543  0.00  0.00    -0.000 A 
ATOM     29  C   UNL d   1      11.517   7.135  -4.904  0.00  0.00    -0.002 A 
ENDBRANCH  23  24
ENDBRANCH  20  23
ENDBRANCH  17  18
ENDBRANCH  16  17
ENDBRANCH   1  16
TORSDOF 8
