REMARK  2 active torsions:
REMARK  status: ('A' for Active; 'I' for Inactive)
REMARK    1  A    between atoms: C_2  and  C_3 
REMARK    2  A    between atoms: C_3  and  N_4 
ROOT
ATOM      1  N   UNL d   1       9.513   4.847 -13.440  0.00  0.00     0.135 N 
ATOM      2  C   UNL d   1      10.056   5.079 -14.781  0.00  0.00     0.250 C 
ATOM      3  C   UNL d   1      10.407   3.800 -15.532  0.00  0.00     0.036 C 
ATOM      4  C   UNL d   1       9.145   2.959 -15.692  0.00  0.00     0.008 C 
ATOM      5  C   UNL d   1       8.474   2.774 -14.314  0.00  0.00     0.053 C 
ATOM      6  C   UNL d   1       7.253   1.865 -14.387  0.00  0.00    -0.023 A 
ATOM      7  C   UNL d   1       7.197   0.736 -15.236  0.00  0.00     0.019 A 
ATOM      8  C   UNL d   1       6.074  -0.124 -15.217  0.00  0.00     0.090 A 
ATOM      9  C   UNL d   1       5.032   0.125 -14.319  0.00  0.00     0.002 A 
ATOM     10  C   UNL d   1       5.069   1.223 -13.471  0.00  0.00    -0.007 A 
ATOM     11  C   UNL d   1       6.149   2.111 -13.489  0.00  0.00    -0.026 A 
ATOM     12  C   UNL d   1       6.131   3.302 -12.540  0.00  0.00     0.028 C 
ATOM     13  C   UNL d   1       7.473   4.014 -12.306  0.00  0.00     0.038 C 
ATOM     14  C   UNL d   1       8.223   4.170 -13.635  0.00  0.00     0.224 C 
ATOM     15  C   UNL d   1       3.918  -0.839 -14.582  0.00  0.00     0.061 A 
ATOM     16  C   UNL d   1       4.545  -1.739 -15.669  0.00  0.00     0.154 A 
ATOM     17  O   UNL d   1       5.811  -1.160 -16.051  0.00  0.00    -0.331 OA
ENDROOT
BRANCH   1  18
ATOM     18  C   UNL d   1       9.373   6.110 -12.698  0.00  0.00     0.250 C 
BRANCH  18  19
ATOM     19  C   UNL d   1       9.955   5.933 -11.267  0.00  0.00     0.035 C 
ATOM     20  C   UNL d   1       9.162   6.606 -10.159  0.00  0.00     0.002 C 
ENDBRANCH  18  19
ENDBRANCH   1  18
TORSDOF 2
