REMARK  8 active torsions:
REMARK  status: ('A' for Active; 'I' for Inactive)
REMARK    1  A    between atoms: C_2  and  O_3 
REMARK    2  A    between atoms: O_3  and  C_4 
REMARK    3  A    between atoms: C_4  and  C_5 
REMARK       I    between atoms: C_5  and  N_7 
REMARK    4  A    between atoms: N_7  and  C_8 
REMARK    5  A    between atoms: C_11  and  C_12 
REMARK    6  A    between atoms: C_12  and  C_13 
REMARK    7  A    between atoms: C_13  and  N_14 
REMARK    8  A    between atoms: N_17  and  C_18 
ROOT
ATOM      1  N   UNL d   1       9.239   6.293  -9.174  0.00  0.00     0.141 N 
ATOM      2  C   UNL d   1       9.533   5.677  -7.880  0.00  0.00     0.274 C 
ATOM      3  C   UNL d   1       9.058   6.598  -6.742  0.00  0.00     0.138 C 
ATOM      4  N   UNL d   1       9.750   7.876  -6.868  0.00  0.00    -0.330 N 
ATOM      5  C   UNL d   1       9.540   8.529  -8.156  0.00  0.00     0.138 C 
ATOM      6  C   UNL d   1       9.963   7.571  -9.280  0.00  0.00     0.274 C 
ENDROOT
BRANCH   1   7
ATOM      7  C   UNL d   1       9.640   5.401 -10.250  0.00  0.00     0.250 C 
BRANCH   7   8
ATOM      8  C   UNL d   1       8.650   5.469 -11.421  0.00  0.00     0.035 C 
BRANCH   8   9
ATOM      9  C   UNL d   1       8.880   4.352 -12.470  0.00  0.00     0.002 C 
ATOM     10  C   UNL d   1       7.594   4.077 -13.275  0.00  0.00     0.002 C 
ATOM     11  C   UNL d   1       7.792   2.947 -14.299  0.00  0.00     0.024 C 
ATOM     12  C   UNL d   1       8.979   3.245 -15.229  0.00  0.00     0.106 C 
ATOM     13  C   UNL d   1      10.263   3.501 -14.432  0.00  0.00     0.024 C 
ATOM     14  C   UNL d   1      10.059   4.640 -13.420  0.00  0.00     0.002 C 
BRANCH  12  15
ATOM     15  N   UNL d   1       9.165   2.136 -16.160  0.00  0.00    -0.238 NA
ATOM     16  C   UNL d   1       8.966   2.178 -17.488  0.00  0.00     0.282 C 
ATOM     17  O   UNL d   1       8.650   3.194 -18.104  0.00  0.00    -0.268 OA
BRANCH  16  18
ATOM     18  C   UNL d   1       9.135   0.865 -18.240  0.00  0.00     0.232 C 
BRANCH  18  19
ATOM     19  O   UNL d   1       7.871   0.449 -18.744  0.00  0.00    -0.345 OA
BRANCH  19  20
ATOM     20  C   UNL d   1       7.916  -0.754 -19.505  0.00  0.00     0.143 C 
ATOM     21  C   UNL d   1       8.207  -1.986 -18.628  0.00  0.00     0.035 C 
ENDBRANCH  19  20
ENDBRANCH  18  19
ENDBRANCH  16  18
ENDBRANCH  12  15
ENDBRANCH   8   9
ENDBRANCH   7   8
ENDBRANCH   1   7
BRANCH   4  22
ATOM     22  C   UNL d   1      10.552   8.445  -5.873  0.00  0.00     0.142 C 
ATOM     23  C   UNL d   1      11.250   7.736  -4.843  0.00  0.00     0.059 A 
ATOM     24  C   UNL d   1      11.860   8.496  -3.814  0.00  0.00     0.104 A 
ATOM     25  C   UNL d   1      11.515   6.396  -4.491  0.00  0.00     0.032 A 
ATOM     26  C   UNL d   1      11.743   9.869  -3.745  0.00  0.00     0.045 C 
ATOM     27  O   UNL d   1      12.515   7.680  -2.927  0.00  0.00    -0.305 OA
ATOM     28  C   UNL d   1      11.061  10.472  -4.811  0.00  0.00     0.103 C 
ATOM     29  N   UNL d   1      10.570   9.797  -5.847  0.00  0.00    -0.227 NA
ATOM     30  C   UNL d   1      12.261   6.413  -3.340  0.00  0.00     0.123 A 
ENDBRANCH   4  22
TORSDOF 8
