REMARK  3 active torsions:
REMARK  status: ('A' for Active; 'I' for Inactive)
REMARK    1  A    between atoms: C_4  and  C_5 
REMARK    2  A    between atoms: C_5  and  C_6 
REMARK    3  A    between atoms: C_6  and  N_7 
ROOT
ATOM      1  N   UNL d   1       8.741   4.835 -12.701  0.00  0.00     0.141 N 
ATOM      2  C   UNL d   1       7.398   4.474 -12.227  0.00  0.00     0.282 C 
ATOM      3  C   UNL d   1       6.494   3.951 -13.335  0.00  0.00     0.178 C 
ATOM      4  O   UNL d   1       7.109   2.860 -14.002  0.00  0.00    -0.348 OA
ATOM      5  C   UNL d   1       8.399   3.183 -14.514  0.00  0.00     0.169 C 
ATOM      6  C   UNL d   1       8.945   2.047 -15.360  0.00  0.00     0.004 A 
ATOM      7  C   UNL d   1       8.052   1.311 -16.177  0.00  0.00     0.022 A 
ATOM      8  C   UNL d   1       8.562   0.280 -16.982  0.00  0.00     0.090 A 
ATOM      9  C   UNL d   1       9.915  -0.008 -16.978  0.00  0.00     0.002 A 
ATOM     10  C   UNL d   1      10.823   0.716 -16.196  0.00  0.00    -0.007 A 
ATOM     11  C   UNL d   1      10.337   1.760 -15.379  0.00  0.00    -0.024 A 
ATOM     12  C   UNL d   1      11.313   2.538 -14.515  0.00  0.00     0.028 C 
ATOM     13  C   UNL d   1      10.755   3.857 -13.955  0.00  0.00     0.041 C 
ATOM     14  C   UNL d   1       9.333   3.662 -13.372  0.00  0.00     0.251 C 
ATOM     15  C   UNL d   1      10.188  -1.141 -17.905  0.00  0.00     0.061 A 
ATOM     16  C   UNL d   1       8.769  -1.448 -18.439  0.00  0.00     0.154 A 
ATOM     17  O   UNL d   1       7.851  -0.523 -17.826  0.00  0.00    -0.331 OA
ENDROOT
BRANCH   1  18
ATOM     18  C   UNL d   1       9.560   5.346 -11.600  0.00  0.00     0.255 C 
BRANCH  18  19
ATOM     19  C   UNL d   1       9.029   6.595 -10.879  0.00  0.00     0.062 C 
BRANCH  19  20
ATOM     20  C   UNL d   1       9.899   7.032  -9.723  0.00  0.00    -0.020 A 
ATOM     21  C   UNL d   1       9.652   6.500  -8.440  0.00  0.00    -0.004 A 
ATOM     22  C   UNL d   1      10.427   6.909  -7.340  0.00  0.00    -0.000 A 
ATOM     23  C   UNL d   1      11.453   7.860  -7.525  0.00  0.00    -0.000 A 
ATOM     24  C   UNL d   1      11.701   8.390  -8.804  0.00  0.00    -0.000 A 
ATOM     25  C   UNL d   1      10.913   7.991  -9.899  0.00  0.00    -0.004 A 
ENDBRANCH  19  20
ENDBRANCH  18  19
ENDBRANCH   1  18
TORSDOF 3
