REMARK  6 active torsions:
REMARK  status: ('A' for Active; 'I' for Inactive)
REMARK    1  A    between atoms: C_2  and  C_3 
REMARK    2  A    between atoms: C_8  and  C_9 
REMARK    3  A    between atoms: C_12  and  C_13 
REMARK       I    between atoms: C_13  and  N_15 
REMARK    4  A    between atoms: N_15  and  C_16 
REMARK    5  A    between atoms: N_19  and  C_20 
REMARK    6  A    between atoms: C_20  and  C_21 
ROOT
ATOM      1  C   UNL d   1       9.693   7.450 -10.581  0.00  0.00     0.275 C 
ATOM      2  O   UNL d   1       9.812   8.397 -11.354  0.00  0.00    -0.266 OA
ATOM      3  N   UNL d   1       9.111   6.292 -10.905  0.00  0.00    -0.234 NA
ENDROOT
BRANCH   1   4
ATOM      4  C   UNL d   1      10.180   7.519  -9.172  0.00  0.00     0.058 A 
ATOM      5  C   UNL d   1      11.327   8.277  -8.861  0.00  0.00     0.005 A 
ATOM      6  C   UNL d   1      11.754   8.358  -7.527  0.00  0.00     0.000 A 
ATOM      7  C   UNL d   1      11.038   7.732  -6.486  0.00  0.00     0.000 A 
ATOM      8  C   UNL d   1       9.887   6.980  -6.809  0.00  0.00     0.000 A 
ATOM      9  C   UNL d   1       9.464   6.872  -8.143  0.00  0.00     0.005 A 
BRANCH   7  10
ATOM     10  C   UNL d   1      11.460   7.875  -5.081  0.00  0.00     0.003 A 
ATOM     11  C   UNL d   1      11.484   9.102  -4.369  0.00  0.00     0.042 A 
ATOM     12  C   UNL d   1      11.896   9.131  -3.018  0.00  0.00     0.003 A 
ATOM     13  C   UNL d   1      12.289   7.951  -2.361  0.00  0.00     0.000 A 
ATOM     14  C   UNL d   1      12.255   6.735  -3.056  0.00  0.00     0.000 A 
ATOM     15  C   UNL d   1      11.837   6.707  -4.395  0.00  0.00     0.000 A 
BRANCH  11  16
ATOM     16  C   UNL d   1      11.063  10.393  -4.955  0.00  0.00     0.234 C 
ATOM     17  O   UNL d   1      11.062  10.716  -6.138  0.00  0.00    -0.283 OA
ENDBRANCH  11  16
ENDBRANCH   7  10
ENDBRANCH   1   4
BRANCH   3  18
ATOM     18  C   UNL d   1       8.534   6.008 -12.208  0.00  0.00     0.142 C 
ATOM     19  C   UNL d   1       7.239   5.194 -12.088  0.00  0.00     0.275 C 
ATOM     20  N   UNL d   1       7.304   4.316 -13.265  0.00  0.00     0.143 N 
ATOM     21  C   UNL d   1       8.693   3.847 -13.262  0.00  0.00     0.253 C 
ATOM     22  C   UNL d   1       9.482   5.111 -13.007  0.00  0.00     0.062 C 
BRANCH  20  23
ATOM     23  C   UNL d   1       6.286   3.252 -13.200  0.00  0.00     0.277 C 
BRANCH  23  24
ATOM     24  C   UNL d   1       6.460   2.118 -14.224  0.00  0.00     0.011 A 
ATOM     25  C   UNL d   1       7.333   2.270 -15.320  0.00  0.00    -0.002 A 
ATOM     26  C   UNL d   1       7.617   1.177 -16.158  0.00  0.00    -0.000 A 
ATOM     27  C   UNL d   1       6.941  -0.042 -15.986  0.00  0.00    -0.000 A 
ATOM     28  C   UNL d   1       5.995  -0.186 -14.937  0.00  0.00    -0.000 A 
ATOM     29  C   UNL d   1       5.783   0.886 -14.028  0.00  0.00    -0.002 A 
ENDBRANCH  23  24
ENDBRANCH  20  23
ENDBRANCH   3  18
TORSDOF 6
