REMARK  9 active torsions:
REMARK  status: ('A' for Active; 'I' for Inactive)
REMARK    1  A    between atoms: C_5  and  O_6 
REMARK    2  A    between atoms: O_6  and  C_7 
REMARK    3  A    between atoms: C_7  and  C_8 
REMARK    4  A    between atoms: C_8  and  N_9 
REMARK    5  A    between atoms: N_9  and  C_10 
REMARK    6  A    between atoms: C_10  and  C_11 
REMARK    7  A    between atoms: C_11  and  C_12 
REMARK    8  A    between atoms: C_12  and  S_13 
REMARK    9  A    between atoms: S_13  and  C_14 
ROOT
ATOM      1  N   UNL d   1       9.329   6.797  -9.706  0.00  0.00     0.342 N 
ENDROOT
BRANCH   1   2
ATOM      2  C   UNL d   1       9.345   6.372 -11.091  0.00  0.00     0.323 C 
BRANCH   2   3
ATOM      3  C   UNL d   1       8.096   5.532 -11.405  0.00  0.00     0.187 C 
BRANCH   3   4
ATOM      4  O   UNL d   1       8.235   5.101 -12.753  0.00  0.00    -0.329 OA
BRANCH   4   5
ATOM      5  C   UNL d   1       7.526   3.995 -13.149  0.00  0.00     0.094 A 
ATOM      6  C   UNL d   1       8.110   3.188 -14.141  0.00  0.00     0.024 A 
ATOM      7  C   UNL d   1       7.476   2.010 -14.582  0.00  0.00    -0.002 A 
ATOM      8  C   UNL d   1       6.234   1.634 -14.039  0.00  0.00    -0.022 A 
ATOM      9  C   UNL d   1       5.551   0.361 -14.505  0.00  0.00     0.031 C 
ATOM     10  C   UNL d   1       5.624   2.457 -13.062  0.00  0.00    -0.002 A 
ATOM     11  C   UNL d   1       6.263   3.631 -12.615  0.00  0.00     0.024 A 
ENDBRANCH   4   5
ENDBRANCH   3   4
ENDBRANCH   2   3
ENDBRANCH   1   2
BRANCH   1  12
ATOM     12  C   UNL d   1      10.399   7.742  -9.446  0.00  0.00     0.291 C 
BRANCH  12  13
ATOM     13  C   UNL d   1      10.255   8.209  -7.990  0.00  0.00     0.050 C 
BRANCH  13  14
ATOM     14  C   UNL d   1      11.383   9.174  -7.568  0.00  0.00     0.064 C 
BRANCH  14  15
ATOM     15  S   UNL d   1      11.080   9.978  -5.969  0.00  0.00    -0.114 SA
BRANCH  15  16
ATOM     16  C   UNL d   1      11.516   8.897  -4.647  0.00  0.00     0.025 A 
ATOM     17  C   UNL d   1      11.865   9.448  -3.392  0.00  0.00     0.006 A 
ATOM     18  C   UNL d   1      12.247   8.600  -2.326  0.00  0.00     0.001 A 
ATOM     19  C   UNL d   1      12.238   7.200  -2.512  0.00  0.00     0.000 A 
ATOM     20  C   UNL d   1      11.865   6.658  -3.755  0.00  0.00     0.001 A 
ATOM     21  C   UNL d   1      11.526   7.498  -4.826  0.00  0.00     0.006 A 
ENDBRANCH  15  16
ENDBRANCH  14  15
ENDBRANCH  13  14
ENDBRANCH  12  13
ENDBRANCH   1  12
TORSDOF 9
