REMARK  1 active torsions:
REMARK  status: ('A' for Active; 'I' for Inactive)
REMARK    1  A    between atoms: C_13  and  C_14 
ROOT
ATOM      1  C   UNL d   1       5.758   7.407 -12.489  0.00  0.00     0.285 C 
ATOM      2  N   UNL d   1       6.731   6.334 -12.343  0.00  0.00     0.140 N 
ATOM      3  C   UNL d   1       6.173   5.115 -12.935  0.00  0.00     0.255 C 
ATOM      4  C   UNL d   1       6.929   3.851 -12.575  0.00  0.00     0.061 C 
ATOM      5  C   UNL d   1       8.293   3.705 -13.306  0.00  0.00    -0.023 A 
ATOM      6  C   UNL d   1       8.489   2.519 -14.052  0.00  0.00     0.009 A 
ATOM      7  C   UNL d   1       9.667   2.274 -14.783  0.00  0.00     0.083 A 
ATOM      8 CL   UNL d   1       9.835   0.796 -15.673  0.00  0.00    -0.080 Cl
ATOM      9  C   UNL d   1      10.685   3.243 -14.794  0.00  0.00     0.141 A 
ATOM     10  O   UNL d   1      11.824   3.046 -15.519  0.00  0.00    -0.189 OA
ATOM     11  C   UNL d   1      10.522   4.427 -14.044  0.00  0.00     0.024 A 
ATOM     12  C   UNL d   1       9.343   4.669 -13.282  0.00  0.00    -0.018 A 
ATOM     13  C   UNL d   1       9.232   5.997 -12.518  0.00  0.00     0.078 C 
ATOM     14  C   UNL d   1       7.983   6.793 -12.931  0.00  0.00     0.259 C 
ENDROOT
BRANCH  13  15
ATOM     15  C   UNL d   1       9.470   5.936 -10.998  0.00  0.00    -0.017 C 
ATOM     16  C   UNL d   1      10.200   6.948 -10.324  0.00  0.00    -0.004 C 
ATOM     17  C   UNL d   1      10.411   6.835  -8.934  0.00  0.00    -0.000 C 
ATOM     18  C   UNL d   1       9.855   5.783  -8.185  0.00  0.00    -0.000 C 
ATOM     19  C   UNL d   1       9.132   4.778  -8.847  0.00  0.00    -0.000 C 
ATOM     20  C   UNL d   1       9.045   4.848 -10.237  0.00  0.00    -0.004 C 
ENDBRANCH  13  15
TORSDOF 1
