REMARK  8 active torsions:
REMARK  status: ('A' for Active; 'I' for Inactive)
REMARK    1  A    between atoms: O_2  and  C_3 
REMARK    2  A    between atoms: C_6  and  C_7 
REMARK    3  A    between atoms: C_10  and  S_11 
REMARK    4  A    between atoms: S_11  and  C_12 
REMARK    5  A    between atoms: C_12  and  C_13 
REMARK    6  A    between atoms: C_13  and  C_14 
REMARK    7  A    between atoms: C_14  and  N_15 
REMARK    8  A    between atoms: C_21  and  C_22 
ROOT
ATOM      1  C   UNL d   1      10.807  -0.668 -19.779  0.00  0.00     0.251 C 
ENDROOT
BRANCH   1   2
ATOM      2  C   UNL d   1       9.413  -1.222 -20.068  0.00  0.00     0.047 C 
BRANCH   2   3
ATOM      3  C   UNL d   1       9.128  -1.634 -21.520  0.00  0.00     0.067 C 
BRANCH   3   4
ATOM      4  S   UNL d   1       7.390  -2.239 -21.718  0.00  0.00    -0.075 SA
BRANCH   4   5
ATOM      5  C   UNL d   1       6.510  -1.274 -20.509  0.00  0.00     0.193 A 
ATOM      6  N   UNL d   1       5.858  -0.147 -20.796  0.00  0.00    -0.122 NA
ATOM      7  N   UNL d   1       5.404   0.341 -19.591  0.00  0.00    -0.128 NA
ATOM      8  C   UNL d   1       5.774  -0.556 -18.677  0.00  0.00     0.168 A 
ATOM      9  N   UNL d   1       6.468  -1.589 -19.192  0.00  0.00    -0.289 N 
ATOM     10  C   UNL d   1       7.077  -2.691 -18.464  0.00  0.00     0.134 C 
BRANCH   8  11
ATOM     11  C   UNL d   1       5.507  -0.390 -17.262  0.00  0.00     0.055 A 
ATOM     12  C   UNL d   1       6.385   0.337 -16.444  0.00  0.00     0.008 A 
ATOM     13  C   UNL d   1       6.092   0.462 -15.080  0.00  0.00     0.044 A 
ATOM     14  C   UNL d   1       4.912  -0.128 -14.577  0.00  0.00     0.178 A 
ATOM     15  N   UNL d   1       4.061  -0.834 -15.361  0.00  0.00    -0.221 NA
ATOM     16  C   UNL d   1       4.367  -0.969 -16.677  0.00  0.00     0.104 A 
BRANCH  14  17
ATOM     17  O   UNL d   1       4.516  -0.021 -13.258  0.00  0.00    -0.312 OA
ATOM     18  C   UNL d   1       5.447   0.568 -12.366  0.00  0.00     0.183 C 
ENDBRANCH  14  17
ENDBRANCH   8  11
ENDBRANCH   4   5
ENDBRANCH   3   4
ENDBRANCH   2   3
ENDBRANCH   1   2
BRANCH   1  19
ATOM     19  N   UNL d   1      10.879   0.084 -18.522  0.00  0.00     0.138 N 
ATOM     20  C   UNL d   1      12.213   0.643 -18.318  0.00  0.00     0.255 C 
ATOM     21  C   UNL d   1      12.617   1.731 -19.345  0.00  0.00     0.061 C 
ATOM     22  C   UNL d   1      12.015   3.098 -19.068  0.00  0.00    -0.024 A 
ATOM     23  C   UNL d   1      10.615   3.307 -19.033  0.00  0.00    -0.024 A 
ATOM     24  C   UNL d   1      12.887   4.186 -18.855  0.00  0.00    -0.003 A 
ATOM     25  C   UNL d   1       9.636   2.163 -19.237  0.00  0.00     0.061 C 
ATOM     26  C   UNL d   1      10.112   4.599 -18.776  0.00  0.00    -0.004 A 
ATOM     27  C   UNL d   1       9.804   1.040 -18.194  0.00  0.00     0.255 C 
ATOM     28  C   UNL d   1      10.990   5.679 -18.564  0.00  0.00     0.001 A 
ATOM     29  C   UNL d   1      12.384   5.479 -18.602  0.00  0.00     0.020 A 
BRANCH  29  30
ATOM     30  C   UNL d   1      13.292   6.612 -18.399  0.00  0.00     0.110 A 
ATOM     31  N   UNL d   1      14.442   6.445 -17.762  0.00  0.00    -0.127 NA
ATOM     32  O   UNL d   1      15.059   7.701 -17.732  0.00  0.00    -0.215 OA
ATOM     33  C   UNL d   1      14.252   8.592 -18.362  0.00  0.00     0.105 A 
ATOM     34  C   UNL d   1      13.121   7.966 -18.802  0.00  0.00     0.044 A 
ATOM     35  C   UNL d   1      14.728  10.006 -18.444  0.00  0.00     0.061 C 
ENDBRANCH  29  30
ENDBRANCH   1  19
TORSDOF 8
