REMARK  4 active torsions:
REMARK  status: ('A' for Active; 'I' for Inactive)
REMARK    1  A    between atoms: C_2  and  C_3 
REMARK    2  A    between atoms: C_3  and  O_4 
REMARK    3  A    between atoms: O_4  and  C_5 
REMARK    4  A    between atoms: C_10  and  C_11 
ROOT
ATOM      1  C   UNL d   1       6.852   2.793 -13.720  0.00  0.00     0.097 A 
ATOM      2  C   UNL d   1       5.655   2.197 -13.242  0.00  0.00     0.024 A 
ATOM      3  C   UNL d   1       5.364   0.844 -13.493  0.00  0.00     0.002 A 
ATOM      4  C   UNL d   1       6.271   0.050 -14.206  0.00  0.00     0.000 A 
ATOM      5  C   UNL d   1       7.470   0.612 -14.678  0.00  0.00     0.005 A 
ATOM      6  C   UNL d   1       7.782   1.978 -14.445  0.00  0.00     0.058 A 
ENDROOT
BRANCH   6   7
ATOM      7  C   UNL d   1       9.110   2.484 -14.973  0.00  0.00     0.169 A 
ATOM      8  N   UNL d   1       9.823   1.691 -15.912  0.00  0.00    -0.187 NA
ATOM      9  C   UNL d   1      11.013   1.991 -16.478  0.00  0.00     0.303 A 
ATOM     10  C   UNL d   1      11.552   3.297 -16.047  0.00  0.00     0.200 A 
ATOM     11  O   UNL d   1      11.574   1.243 -17.278  0.00  0.00    -0.263 OA
ATOM     12  C   UNL d   1      10.832   4.053 -15.108  0.00  0.00     0.211 A 
ATOM     13  N   UNL d   1      12.638   3.947 -16.384  0.00  0.00    -0.121 NA
ATOM     14  N   UNL d   1       9.605   3.632 -14.582  0.00  0.00    -0.204 NA
ATOM     15  N   UNL d   1      11.452   5.173 -14.837  0.00  0.00    -0.107 NA
ATOM     16  N   UNL d   1      12.547   5.081 -15.639  0.00  0.00    -0.040 NA
ENDBRANCH   6   7
BRANCH   1  17
ATOM     17  O   UNL d   1       7.169   4.109 -13.456  0.00  0.00    -0.331 OA
BRANCH  17  18
ATOM     18  C   UNL d   1       6.203   4.969 -12.863  0.00  0.00     0.149 C 
BRANCH  18  19
ATOM     19  C   UNL d   1       6.888   6.299 -12.513  0.00  0.00     0.033 C 
ATOM     20  C   UNL d   1       5.899   7.467 -12.439  0.00  0.00     0.003 C 
ENDBRANCH  18  19
ENDBRANCH  17  18
ENDBRANCH   1  17
TORSDOF 4
