REMARK  1 active torsions:
REMARK  status: ('A' for Active; 'I' for Inactive)
REMARK    1  A    between atoms: C_11  and  C_12 
ROOT
ATOM      1  C   UNL d   1      13.455   4.870 -16.011  0.00  0.00     0.285 C 
ATOM      2  N   UNL d   1      12.406   4.234 -16.784  0.00  0.00     0.139 N 
ATOM      3  C   UNL d   1      12.821   2.875 -17.131  0.00  0.00     0.253 C 
ATOM      4  C   UNL d   1      11.730   2.183 -17.981  0.00  0.00     0.064 C 
ATOM      5  C   UNL d   1      10.358   2.142 -17.265  0.00  0.00     0.110 C 
ATOM      6  C   UNL d   1      10.028   3.574 -16.798  0.00  0.00     0.064 C 
ATOM      7  C   UNL d   1      11.181   4.192 -15.991  0.00  0.00     0.253 C 
ATOM      8  C   UNL d   1       9.341   1.608 -18.276  0.00  0.00     0.097 C 
ATOM      9  C   UNL d   1       8.004   1.375 -17.612  0.00  0.00     0.177 C 
ATOM     10  O   UNL d   1       6.976   1.624 -18.244  0.00  0.00    -0.291 OA
ATOM     11  C   UNL d   1       8.038   0.832 -16.236  0.00  0.00     0.059 C 
ATOM     12  C   UNL d   1       9.243   0.829 -15.613  0.00  0.00     0.119 C 
ATOM     13  O   UNL d   1      10.414   1.296 -16.132  0.00  0.00    -0.333 OA
ENDROOT
BRANCH  11  14
ATOM     14  C   UNL d   1       6.791   0.413 -15.557  0.00  0.00     0.005 A 
ATOM     15  C   UNL d   1       5.871  -0.406 -16.260  0.00  0.00     0.003 A 
ATOM     16  C   UNL d   1       4.670  -0.822 -15.658  0.00  0.00     0.030 A 
ATOM     17  C   UNL d   1       4.377  -0.420 -14.347  0.00  0.00     0.140 A 
ATOM     18  C   UNL d   1       5.284   0.388 -13.632  0.00  0.00     0.030 A 
ATOM     19  F   UNL d   1       3.232  -0.827 -13.755  0.00  0.00    -0.204 F 
ATOM     20  C   UNL d   1       6.486   0.808 -14.232  0.00  0.00     0.003 A 
ENDBRANCH  11  14
TORSDOF 1
