REMARK  7 active torsions:
REMARK  status: ('A' for Active; 'I' for Inactive)
REMARK    1  A    between atoms: C_2  and  C_3 
REMARK       I    between atoms: C_2  and  N_11 
REMARK    2  A    between atoms: C_14  and  C_16 
REMARK    3  A    between atoms: C_16  and  N_17 
REMARK    4  A    between atoms: N_17  and  C_18 
REMARK    5  A    between atoms: C_18  and  C_19 
REMARK    6  A    between atoms: C_19  and  O_20 
REMARK    7  A    between atoms: O_20  and  C_21 
ROOT
ATOM      1  O   UNL d   1       9.110   1.048 -14.747  0.00  0.00    -0.267 OA
ATOM      2  C   UNL d   1       8.040   1.616 -14.467  0.00  0.00     0.257 C 
ATOM      3  N   UNL d   1       7.968   2.890 -14.039  0.00  0.00    -0.317 N 
ATOM      4  C   UNL d   1       9.169   3.761 -14.026  0.00  0.00     0.107 C 
ATOM      5  C   UNL d   1       9.414   4.343 -12.627  0.00  0.00     0.059 C 
ATOM      6  C   UNL d   1       8.169   5.078 -12.089  0.00  0.00     0.172 C 
ATOM      7  F   UNL d   1       7.941   6.174 -12.844  0.00  0.00    -0.238 F 
ATOM      8  C   UNL d   1       6.928   4.185 -12.188  0.00  0.00     0.059 C 
ATOM      9  C   UNL d   1       6.736   3.606 -13.608  0.00  0.00     0.107 C 
ENDROOT
BRANCH   6  10
ATOM     10  C   UNL d   1       8.383   5.537 -10.642  0.00  0.00     0.323 C 
BRANCH  10  11
ATOM     11  N   UNL d   1       9.457   6.521 -10.586  0.00  0.00     0.345 N 
BRANCH  11  12
ATOM     12  C   UNL d   1       9.575   6.997  -9.223  0.00  0.00     0.323 C 
BRANCH  12  13
ATOM     13  C   UNL d   1      10.703   8.043  -9.137  0.00  0.00     0.187 C 
BRANCH  13  14
ATOM     14  O   UNL d   1      10.523   8.922  -8.037  0.00  0.00    -0.329 OA
BRANCH  14  15
ATOM     15  C   UNL d   1      10.903   8.514  -6.780  0.00  0.00     0.094 A 
ATOM     16  C   UNL d   1      11.065   7.157  -6.395  0.00  0.00     0.026 A 
ATOM     17  C   UNL d   1      11.461   6.839  -5.084  0.00  0.00     0.032 A 
ATOM     18  C   UNL d   1      11.742   7.859  -4.153  0.00  0.00     0.140 A 
ATOM     19  C   UNL d   1      11.574   9.206  -4.528  0.00  0.00     0.032 A 
ATOM     20  F   UNL d   1      12.159   7.542  -2.905  0.00  0.00    -0.204 F 
ATOM     21  C   UNL d   1      11.144   9.529  -5.830  0.00  0.00     0.026 A 
ENDBRANCH  14  15
ENDBRANCH  13  14
ENDBRANCH  12  13
ENDBRANCH  11  12
ENDBRANCH  10  11
ENDBRANCH   6  10
BRANCH   2  22
ATOM     22  C   UNL d   1       6.766   0.847 -14.712  0.00  0.00     0.057 A 
ATOM     23  C   UNL d   1       6.528   0.263 -15.974  0.00  0.00     0.018 A 
ATOM     24  C   UNL d   1       5.335  -0.443 -16.236  0.00  0.00     0.085 A 
ATOM     25  C   UNL d   1       4.364  -0.575 -15.226  0.00  0.00     0.151 A 
ATOM     26 CL   UNL d   1       5.043  -1.116 -17.797  0.00  0.00    -0.080 Cl
ATOM     27  C   UNL d   1       4.620  -0.003 -13.951  0.00  0.00     0.031 A 
ATOM     28  F   UNL d   1       3.189  -1.200 -15.465  0.00  0.00    -0.203 F 
ATOM     29  C   UNL d   1       5.800   0.661 -13.688  0.00  0.00     0.007 A 
ENDBRANCH   2  22
TORSDOF 7
