REMARK  7 active torsions:
REMARK  status: ('A' for Active; 'I' for Inactive)
REMARK    1  A    between atoms: C_6  and  N_7 
REMARK    2  A    between atoms: N_10  and  C_11 
REMARK    3  A    between atoms: C_11  and  C_12 
REMARK    4  A    between atoms: C_12  and  C_13 
REMARK    5  A    between atoms: C_13  and  C_14 
REMARK    6  A    between atoms: C_14  and  C_15 
REMARK    7  A    between atoms: N_17  and  C_18 
ROOT
ATOM      1  C   UNL d   1       9.194   6.425 -11.623  0.00  0.00     0.101 A 
ATOM      2  C   UNL d   1       9.485   6.200 -10.309  0.00  0.00     0.119 A 
ATOM      3  N   UNL d   1       9.893   7.438  -9.844  0.00  0.00    -0.209 N 
ATOM      4  N   UNL d   1       9.862   8.358 -10.844  0.00  0.00    -0.060 NA
ATOM      5  N   UNL d   1       9.434   7.765 -11.911  0.00  0.00    -0.133 NA
ENDROOT
BRANCH   1   6
ATOM      6  C   UNL d   1       8.733   5.463 -12.665  0.00  0.00     0.049 C 
BRANCH   6   7
ATOM      7  C   UNL d   1       9.882   4.983 -13.571  0.00  0.00     0.009 C 
BRANCH   7   8
ATOM      8  C   UNL d   1       9.409   3.896 -14.528  0.00  0.00     0.036 C 
BRANCH   8   9
ATOM      9  C   UNL d   1      10.494   3.406 -15.518  0.00  0.00     0.250 C 
BRANCH   9  10
ATOM     10  N   UNL d   1      10.104   2.248 -16.340  0.00  0.00     0.141 N 
ATOM     11  C   UNL d   1       9.107   2.617 -17.350  0.00  0.00     0.274 C 
ATOM     12  C   UNL d   1       8.714   1.410 -18.229  0.00  0.00     0.137 C 
ATOM     13  N   UNL d   1       8.288   0.298 -17.381  0.00  0.00    -0.344 N 
ATOM     14  C   UNL d   1       9.237  -0.086 -16.345  0.00  0.00     0.137 C 
ATOM     15  C   UNL d   1       9.613   1.144 -15.507  0.00  0.00     0.274 C 
BRANCH  13  16
ATOM     16  C   UNL d   1       7.023  -0.297 -17.522  0.00  0.00     0.068 A 
ATOM     17  C   UNL d   1       6.673  -0.827 -18.785  0.00  0.00     0.018 A 
ATOM     18  C   UNL d   1       5.436  -1.472 -18.990  0.00  0.00     0.002 A 
ATOM     19  C   UNL d   1       4.520  -1.597 -17.928  0.00  0.00     0.012 A 
ATOM     20  C   UNL d   1       4.846  -1.069 -16.666  0.00  0.00     0.070 A 
ATOM     21 CL   UNL d   1       3.703  -1.208 -15.372  0.00  0.00    -0.081 Cl
ATOM     22  C   UNL d   1       6.078  -0.411 -16.459  0.00  0.00     0.084 A 
ATOM     23 CL   UNL d   1       6.354   0.279 -14.888  0.00  0.00    -0.080 Cl
ENDBRANCH  13  16
ENDBRANCH   9  10
ENDBRANCH   8   9
ENDBRANCH   7   8
ENDBRANCH   6   7
ENDBRANCH   1   6
BRANCH   3  24
ATOM     24  C   UNL d   1      10.288   7.798  -8.530  0.00  0.00     0.084 A 
ATOM     25  C   UNL d   1      10.673   6.801  -7.604  0.00  0.00     0.015 A 
ATOM     26  C   UNL d   1      11.059   7.199  -6.314  0.00  0.00    -0.016 A 
ATOM     27  C   UNL d   1      11.060   8.539  -5.932  0.00  0.00    -0.004 A 
ATOM     28  C   UNL d   1      11.534   6.304  -5.191  0.00  0.00     0.053 A 
ATOM     29  C   UNL d   1      10.678   9.547  -6.827  0.00  0.00     0.001 A 
ATOM     30  C   UNL d   1      11.509   8.605  -4.552  0.00  0.00    -0.004 A 
ATOM     31  C   UNL d   1      10.298   9.159  -8.133  0.00  0.00     0.019 A 
ATOM     32  C   UNL d   1      11.804   7.313  -4.109  0.00  0.00    -0.018 A 
ATOM     33  C   UNL d   1      11.648   9.696  -3.692  0.00  0.00    -0.000 A 
ATOM     34  C   UNL d   1      12.241   7.048  -2.802  0.00  0.00    -0.004 A 
ATOM     35  C   UNL d   1      12.400   8.147  -1.938  0.00  0.00    -0.000 A 
ATOM     36  C   UNL d   1      12.110   9.450  -2.388  0.00  0.00    -0.000 A 
ENDBRANCH   3  24
TORSDOF 7
