REMARK  9 active torsions:
REMARK  status: ('A' for Active; 'I' for Inactive)
REMARK    1  A    between atoms: O_2  and  C_3 
REMARK    2  A    between atoms: C_8  and  N_9 
REMARK    3  A    between atoms: N_12  and  C_13 
REMARK    4  A    between atoms: C_13  and  C_14 
REMARK    5  A    between atoms: C_14  and  C_15 
REMARK    6  A    between atoms: C_15  and  C_16 
REMARK    7  A    between atoms: C_16  and  N_17 
REMARK       I    between atoms: N_17  and  C_18 
REMARK    8  A    between atoms: C_18  and  C_20 
REMARK    9  A    between atoms: C_21  and  C_22 
ROOT
ATOM      1  C   UNL d   1      10.148   3.197 -13.967  0.00  0.00     0.251 C 
ENDROOT
BRANCH   1   2
ATOM      2  N   UNL d   1       9.766   2.344 -15.089  0.00  0.00     0.141 N 
ATOM      3  C   UNL d   1       8.741   2.990 -15.912  0.00  0.00     0.274 C 
ATOM      4  C   UNL d   1       8.359   2.146 -17.114  0.00  0.00     0.137 C 
ATOM      5  N   UNL d   1       7.938   0.827 -16.669  0.00  0.00    -0.343 N 
ATOM      6  C   UNL d   1       8.890   0.147 -15.803  0.00  0.00     0.137 C 
ATOM      7  C   UNL d   1       9.280   1.045 -14.613  0.00  0.00     0.274 C 
BRANCH   5   8
ATOM      8  C   UNL d   1       6.711   0.251 -17.060  0.00  0.00     0.079 A 
ATOM      9  C   UNL d   1       6.240   0.394 -18.394  0.00  0.00     0.110 A 
ATOM     10  C   UNL d   1       5.003  -0.200 -18.753  0.00  0.00     0.026 A 
ATOM     11  C   UNL d   1       4.258  -0.934 -17.816  0.00  0.00     0.002 A 
ATOM     12  C   UNL d   1       4.727  -1.079 -16.500  0.00  0.00     0.002 A 
ATOM     13  C   UNL d   1       5.946  -0.481 -16.125  0.00  0.00     0.019 A 
BRANCH   9  14
ATOM     14  O   UNL d   1       7.023   1.094 -19.287  0.00  0.00    -0.327 OA
ATOM     15  C   UNL d   1       6.610   1.190 -20.637  0.00  0.00     0.181 C 
ENDBRANCH   9  14
ENDBRANCH   5   8
ENDBRANCH   1   2
BRANCH   1  16
ATOM     16  C   UNL d   1       8.960   3.934 -13.287  0.00  0.00     0.037 C 
BRANCH  16  17
ATOM     17  C   UNL d   1       9.353   4.651 -12.011  0.00  0.00     0.029 C 
BRANCH  17  18
ATOM     18  C   UNL d   1       8.118   5.221 -11.279  0.00  0.00     0.129 C 
BRANCH  18  19
ATOM     19  N   UNL d   1       8.494   5.968 -10.090  0.00  0.00    -0.234 NA
ATOM     20  C   UNL d   1       9.182   5.468  -9.052  0.00  0.00     0.275 C 
ATOM     21  O   UNL d   1       9.445   4.276  -8.927  0.00  0.00    -0.266 OA
BRANCH  20  22
ATOM     22  C   UNL d   1       9.580   6.515  -8.134  0.00  0.00     0.062 C 
ATOM     23  C   UNL d   1      10.586   6.316  -7.259  0.00  0.00     0.006 C 
BRANCH  23  24
ATOM     24  C   UNL d   1      11.104   7.314  -6.316  0.00  0.00     0.011 A 
ATOM     25  C   UNL d   1      11.336   8.658  -6.694  0.00  0.00     0.058 A 
ATOM     26  C   UNL d   1      11.812   9.583  -5.743  0.00  0.00     0.011 A 
ATOM     27 CL   UNL d   1      11.113   9.188  -8.323  0.00  0.00    -0.082 Cl
ATOM     28  C   UNL d   1      12.068   9.177  -4.418  0.00  0.00     0.001 A 
ATOM     29  C   UNL d   1      11.856   7.839  -4.040  0.00  0.00     0.000 A 
ATOM     30  C   UNL d   1      11.374   6.914  -4.989  0.00  0.00     0.001 A 
ENDBRANCH  23  24
ENDBRANCH  20  22
ENDBRANCH  18  19
ENDBRANCH  17  18
ENDBRANCH  16  17
ENDBRANCH   1  16
TORSDOF 9
