REMARK  7 active torsions:
REMARK  status: ('A' for Active; 'I' for Inactive)
REMARK    1  A    between atoms: C_2  and  C_3 
REMARK    2  A    between atoms: C_3  and  N_4 
REMARK    3  A    between atoms: N_4  and  C_5 
REMARK    4  A    between atoms: N_4  and  C_20 
REMARK    5  A    between atoms: C_5  and  C_6 
REMARK    6  A    between atoms: C_6  and  N_7 
REMARK       I    between atoms: N_7  and  C_8 
REMARK       I    between atoms: C_8  and  N_10 
REMARK    7  A    between atoms: N_11  and  C_12 
ROOT
ATOM      1  C   UNL d   1      10.404   6.374  -9.398  0.00  0.00     0.276 C 
ENDROOT
BRANCH   1   2
ATOM      2  N   UNL d   1      10.550   7.599  -8.610  0.00  0.00     0.138 N 
BRANCH   2   3
ATOM      3  C   UNL d   1      11.950   7.985  -8.357  0.00  0.00     0.250 C 
BRANCH   3   4
ATOM      4  C   UNL d   1      12.775   8.202  -9.619  0.00  0.00     0.035 C 
ATOM      5  C   UNL d   1      12.060   9.117 -10.620  0.00  0.00     0.002 C 
ENDBRANCH   3   4
ENDBRANCH   2   3
BRANCH   2   6
ATOM      6  C   UNL d   1       9.742   7.555  -7.386  0.00  0.00     0.228 C 
ATOM      7  C   UNL d   1      10.364   6.608  -6.323  0.00  0.00     0.060 C 
ATOM      8  C   UNL d   1      10.990   7.554  -5.342  0.00  0.00    -0.024 A 
ATOM      9  C   UNL d   1      10.599   8.867  -5.571  0.00  0.00    -0.024 A 
ATOM     10  C   UNL d   1      11.859   7.218  -4.297  0.00  0.00    -0.004 A 
ATOM     11  C   UNL d   1       9.671   8.963  -6.751  0.00  0.00     0.060 C 
ATOM     12  C   UNL d   1      11.010   9.913  -4.730  0.00  0.00    -0.004 A 
ATOM     13  C   UNL d   1      11.862   9.584  -3.649  0.00  0.00    -0.000 A 
ATOM     14  C   UNL d   1      12.299   8.256  -3.444  0.00  0.00    -0.000 A 
ENDBRANCH   2   6
ENDBRANCH   1   2
BRANCH   1  15
ATOM     15  C   UNL d   1       9.001   6.192  -9.992  0.00  0.00     0.166 C 
BRANCH  15  16
ATOM     16  N   UNL d   1       8.995   5.064 -10.912  0.00  0.00    -0.214 NA
ATOM     17  C   UNL d   1       9.222   5.154 -12.227  0.00  0.00     0.382 C 
ATOM     18  O   UNL d   1       9.386   6.211 -12.837  0.00  0.00    -0.241 OA
ATOM     19  N   UNL d   1       9.288   3.830 -12.904  0.00  0.00    -0.088 NA
ATOM     20  N   UNL d   1       9.781   3.827 -14.051  0.00  0.00    -0.144 NA
BRANCH  20  21
ATOM     21  C   UNL d   1       9.768   2.579 -14.710  0.00  0.00     0.105 A 
ATOM     22  C   UNL d   1      10.810   2.296 -15.619  0.00  0.00     0.053 A 
ATOM     23  C   UNL d   1      10.854   1.049 -16.275  0.00  0.00     0.169 A 
ATOM     24  C   UNL d   1       9.854   0.088 -16.033  0.00  0.00     0.168 A 
ATOM     25  F   UNL d   1      11.864   0.769 -17.136  0.00  0.00    -0.202 F 
ATOM     26  C   UNL d   1       8.802   0.378 -15.150  0.00  0.00     0.034 A 
ATOM     27  F   UNL d   1       9.901  -1.118 -16.650  0.00  0.00    -0.202 F 
ATOM     28  C   UNL d   1       8.752   1.621 -14.494  0.00  0.00     0.023 A 
ENDBRANCH  20  21
ENDBRANCH  15  16
ENDBRANCH   1  15
TORSDOF 7
