REMARK  6 active torsions:
REMARK  status: ('A' for Active; 'I' for Inactive)
REMARK    1  A    between atoms: C_2  and  O_3 
REMARK    2  A    between atoms: O_3  and  C_4 
REMARK    3  A    between atoms: C_10  and  C_11 
REMARK    4  A    between atoms: N_14  and  C_15 
REMARK    5  A    between atoms: C_15  and  C_16 
REMARK    6  A    between atoms: C_19  and  O_20 
ROOT
ATOM      1  C   UNL d   1       9.047   2.935 -14.353  0.00  0.00    -0.021 C 
ATOM      2  C   UNL d   1       7.754   3.103 -14.027  0.00  0.00     0.005 C 
ATOM      3  C   UNL d   1       7.279   4.095 -12.975  0.00  0.00     0.277 C 
ATOM      4  N   UNL d   1       8.365   4.588 -12.136  0.00  0.00     0.146 N 
ATOM      5  C   UNL d   1       9.493   5.005 -12.961  0.00  0.00     0.256 C 
ATOM      6  C   UNL d   1      10.098   3.788 -13.669  0.00  0.00     0.061 C 
ENDROOT
BRANCH   1   7
ATOM      7  C   UNL d   1       9.482   1.969 -15.372  0.00  0.00     0.017 A 
ATOM      8  C   UNL d   1      10.773   1.533 -15.514  0.00  0.00     0.099 A 
ATOM      9  N   UNL d   1      10.811   0.638 -16.569  0.00  0.00    -0.244 NA
ATOM     10  C   UNL d   1       9.549   0.475 -17.116  0.00  0.00     0.082 A 
ATOM     11  C   UNL d   1       9.095  -0.308 -18.191  0.00  0.00     0.021 A 
ATOM     12  C   UNL d   1       8.669   1.319 -16.369  0.00  0.00     0.021 A 
ATOM     13  C   UNL d   1       7.731  -0.282 -18.541  0.00  0.00     0.026 A 
ATOM     14  C   UNL d   1       6.824   0.532 -17.811  0.00  0.00     0.094 A 
ATOM     15  C   UNL d   1       7.309   1.331 -16.757  0.00  0.00     0.026 A 
BRANCH  14  16
ATOM     16  O   UNL d   1       5.470   0.604 -18.047  0.00  0.00    -0.331 OA
BRANCH  16  17
ATOM     17  C   UNL d   1       4.906  -0.140 -19.117  0.00  0.00     0.149 C 
ATOM     18  C   UNL d   1       5.134   0.613 -20.440  0.00  0.00     0.035 C 
ENDBRANCH  16  17
ENDBRANCH  14  16
ENDBRANCH   1   7
BRANCH   4  19
ATOM     19  C   UNL d   1       7.870   5.689 -11.306  0.00  0.00     0.277 C 
BRANCH  19  20
ATOM     20  C   UNL d   1       8.839   6.090 -10.212  0.00  0.00     0.011 A 
ATOM     21  C   UNL d   1       8.685   5.583  -8.911  0.00  0.00    -0.000 A 
ATOM     22  C   UNL d   1       9.549   6.007  -7.886  0.00  0.00     0.024 A 
ATOM     23  C   UNL d   1      10.592   6.927  -8.149  0.00  0.00     0.094 A 
ATOM     24  C   UNL d   1      10.743   7.425  -9.458  0.00  0.00     0.024 A 
ATOM     25  C   UNL d   1       9.855   7.034 -10.474  0.00  0.00    -0.000 A 
BRANCH  23  26
ATOM     26  O   UNL d   1      11.490   7.373  -7.206  0.00  0.00    -0.328 OA
ATOM     27  C   UNL d   1      11.228   7.063  -5.846  0.00  0.00     0.181 C 
ENDBRANCH  23  26
ENDBRANCH  19  20
ENDBRANCH   4  19
TORSDOF 6
