REMARK  7 active torsions:
REMARK  status: ('A' for Active; 'I' for Inactive)
REMARK    1  A    between atoms: C_6  and  C_7 
REMARK    2  A    between atoms: C_10  and  S_11 
REMARK    3  A    between atoms: S_11  and  C_12 
REMARK    4  A    between atoms: C_12  and  C_13 
REMARK    5  A    between atoms: C_13  and  C_14 
REMARK    6  A    between atoms: C_14  and  N_15 
REMARK    7  A    between atoms: C_19  and  C_20 
ROOT
ATOM      1  C   UNL d   1       9.459   3.867 -14.411  0.00  0.00     0.067 C 
ENDROOT
BRANCH   1   2
ATOM      2  S   UNL d   1      10.545   2.621 -15.184  0.00  0.00    -0.075 SA
BRANCH   2   3
ATOM      3  C   UNL d   1      11.843   3.630 -15.837  0.00  0.00     0.193 A 
ATOM      4  N   UNL d   1      12.340   4.704 -15.225  0.00  0.00    -0.122 NA
ATOM      5  N   UNL d   1      13.323   5.183 -16.049  0.00  0.00    -0.126 NA
ATOM      6  C   UNL d   1      13.343   4.372 -17.113  0.00  0.00     0.191 A 
ATOM      7  N   UNL d   1      12.445   3.365 -17.018  0.00  0.00    -0.287 N 
ATOM      8  C   UNL d   1      12.199   2.267 -17.948  0.00  0.00     0.134 C 
BRANCH   6   9
ATOM      9  C   UNL d   1      14.268   4.603 -18.223  0.00  0.00     0.151 A 
ATOM     10  C   UNL d   1      15.363   5.421 -18.359  0.00  0.00     0.087 A 
ATOM     11  C   UNL d   1      16.003   6.350 -17.370  0.00  0.00     0.054 C 
ATOM     12  N   UNL d   1      15.868   5.273 -19.643  0.00  0.00    -0.221 NA
ATOM     13  C   UNL d   1      15.062   4.385 -20.216  0.00  0.00     0.225 A 
ATOM     14  O   UNL d   1      14.077   3.928 -19.401  0.00  0.00    -0.282 OA
ENDBRANCH   6   9
ENDBRANCH   2   3
ENDBRANCH   1   2
BRANCH   1  15
ATOM     15  C   UNL d   1      10.026   4.416 -13.097  0.00  0.00     0.047 C 
BRANCH  15  16
ATOM     16  C   UNL d   1       9.070   5.330 -12.328  0.00  0.00     0.251 C 
BRANCH  16  17
ATOM     17  N   UNL d   1       9.652   5.593 -11.016  0.00  0.00     0.137 N 
ATOM     18  C   UNL d   1       9.001   6.703 -10.347  0.00  0.00     0.254 C 
ATOM     19  C   UNL d   1       9.296   6.499  -8.873  0.00  0.00     0.052 A 
ATOM     20  C   UNL d   1       9.620   5.049  -8.748  0.00  0.00     0.039 A 
ATOM     21  C   UNL d   1       8.455   5.612  -7.980  0.00  0.00     0.008 A 
ATOM     22  C   UNL d   1       9.464   4.454 -10.115  0.00  0.00     0.251 C 
BRANCH  19  23
ATOM     23  C   UNL d   1      10.212   7.508  -8.251  0.00  0.00    -0.021 A 
ATOM     24  C   UNL d   1       9.811   8.215  -7.093  0.00  0.00    -0.004 A 
ATOM     25  C   UNL d   1      10.693   9.117  -6.464  0.00  0.00    -0.000 A 
ATOM     26  C   UNL d   1      11.980   9.311  -6.986  0.00  0.00    -0.000 A 
ATOM     27  C   UNL d   1      12.380   8.622  -8.147  0.00  0.00    -0.000 A 
ATOM     28  C   UNL d   1      11.499   7.728  -8.779  0.00  0.00    -0.004 A 
ENDBRANCH  19  23
ENDBRANCH  16  17
ENDBRANCH  15  16
ENDBRANCH   1  15
TORSDOF 7
