REMARK  10 active torsions:
REMARK  status: ('A' for Active; 'I' for Inactive)
REMARK    1  A    between atoms: C_2  and  C_3 
REMARK    2  A    between atoms: C_3  and  N_4 
REMARK    3  A    between atoms: N_4  and  C_5 
REMARK    4  A    between atoms: N_4  and  C_23 
REMARK    5  A    between atoms: C_5  and  C_6 
REMARK    6  A    between atoms: C_6  and  N_7 
REMARK    7  A    between atoms: N_10  and  C_11 
REMARK    8  A    between atoms: C_11  and  C_12 
REMARK    9  A    between atoms: C_23  and  C_24 
REMARK   10  A    between atoms: C_27  and  O_28 
ROOT
ATOM      1  N   UNL d   1       9.815   4.592 -13.694  0.00  0.00     0.143 N 
ATOM      2  C   UNL d   1      10.767   3.476 -13.599  0.00  0.00     0.286 C 
ATOM      3  C   UNL d   1      10.731   2.577 -14.816  0.00  0.00     0.286 C 
ATOM      4  N   UNL d   1       9.369   2.067 -15.015  0.00  0.00     0.147 N 
ATOM      5  C   UNL d   1       8.456   3.207 -15.157  0.00  0.00     0.286 C 
ATOM      6  C   UNL d   1       8.471   4.091 -13.934  0.00  0.00     0.286 C 
ENDROOT
BRANCH   1   7
ATOM      7  C   UNL d   1       9.889   5.441 -12.517  0.00  0.00     0.286 C 
BRANCH   7   8
ATOM      8  C   UNL d   1       9.277   4.936 -11.200  0.00  0.00     0.286 C 
BRANCH   8   9
ATOM      9  N   UNL d   1       9.512   5.793 -10.032  0.00  0.00     0.143 N 
BRANCH   9  10
ATOM     10  C   UNL d   1       8.310   5.821  -9.207  0.00  0.00     0.251 C 
BRANCH  10  11
ATOM     11  C   UNL d   1       8.409   4.915  -8.001  0.00  0.00     0.035 C 
ATOM     12  C   UNL d   1       8.390   3.406  -8.262  0.00  0.00     0.002 C 
ENDBRANCH  10  11
ENDBRANCH   9  10
BRANCH   9  13
ATOM     13  C   UNL d   1       9.933   7.153 -10.305  0.00  0.00     0.277 C 
BRANCH  13  14
ATOM     14  C   UNL d   1      10.492   7.915  -9.096  0.00  0.00     0.011 A 
ATOM     15  C   UNL d   1       9.622   8.504  -8.158  0.00  0.00    -0.000 A 
ATOM     16  C   UNL d   1      10.174   9.168  -7.032  0.00  0.00     0.024 A 
ATOM     17  C   UNL d   1      11.556   9.314  -6.880  0.00  0.00     0.094 A 
ATOM     18  C   UNL d   1      12.431   8.766  -7.863  0.00  0.00     0.024 A 
ATOM     19  C   UNL d   1      11.887   8.049  -8.937  0.00  0.00    -0.000 A 
BRANCH  17  20
ATOM     20  O   UNL d   1      11.985  10.012  -5.786  0.00  0.00    -0.328 OA
ATOM     21  C   UNL d   1      13.004   9.407  -5.047  0.00  0.00     0.181 C 
ENDBRANCH  17  20
ENDBRANCH  13  14
ENDBRANCH   9  13
ENDBRANCH   8   9
ENDBRANCH   7   8
ENDBRANCH   1   7
BRANCH   4  22
ATOM     22  C   UNL d   1       9.307   1.189 -16.175  0.00  0.00     0.296 C 
BRANCH  22  23
ATOM     23  C   UNL d   1       7.989   0.507 -16.330  0.00  0.00     0.092 A 
ATOM     24  N   UNL d   1       7.659  -0.164 -17.495  0.00  0.00    -0.248 NA
ATOM     25  C   UNL d   1       6.401  -0.723 -17.399  0.00  0.00     0.081 A 
ATOM     26  C   UNL d   1       5.923  -0.363 -16.105  0.00  0.00     0.019 A 
ATOM     27  C   UNL d   1       5.636  -1.506 -18.285  0.00  0.00     0.019 A 
ATOM     28  C   UNL d   1       6.942   0.404 -15.450  0.00  0.00     0.018 A 
ATOM     29  C   UNL d   1       4.633  -0.803 -15.739  0.00  0.00     0.002 A 
ATOM     30  C   UNL d   1       3.861  -1.585 -16.619  0.00  0.00     0.000 A 
ATOM     31  C   UNL d   1       4.359  -1.937 -17.887  0.00  0.00     0.002 A 
ENDBRANCH  22  23
ENDBRANCH   4  22
TORSDOF 10
