REMARK  5 active torsions:
REMARK  status: ('A' for Active; 'I' for Inactive)
REMARK    1  A    between atoms: C_4  and  C_5 
REMARK    2  A    between atoms: C_5  and  C_6 
REMARK    3  A    between atoms: C_6  and  N_7 
REMARK    4  A    between atoms: C_10  and  C_11 
REMARK    5  A    between atoms: C_13  and  C_14 
ROOT
ATOM      1  N   UNL d   1       9.952   6.688  -8.323  0.00  0.00     0.137 N 
ATOM      2  C   UNL d   1       9.947   7.662  -9.411  0.00  0.00     0.251 C 
ATOM      3  C   UNL d   1      10.021   6.936 -10.760  0.00  0.00     0.041 C 
ATOM      4  C   UNL d   1       8.886   5.921 -10.957  0.00  0.00     0.046 C 
ATOM      5  C   UNL d   1       8.818   5.013  -9.726  0.00  0.00     0.041 C 
ATOM      6  C   UNL d   1       8.777   5.829  -8.441  0.00  0.00     0.251 C 
ENDROOT
BRANCH   4   7
ATOM      7  C   UNL d   1       9.043   5.143 -12.222  0.00  0.00     0.082 A 
ATOM      8  N   UNL d   1       8.537   5.571 -13.420  0.00  0.00    -0.153 NA
ATOM      9  N   UNL d   1       8.797   4.732 -14.438  0.00  0.00    -0.153 NA
ATOM     10  C   UNL d   1       9.484   3.745 -13.873  0.00  0.00     0.081 A 
ATOM     11  C   UNL d   1       9.671   3.958 -12.479  0.00  0.00     0.033 A 
BRANCH  10  12
ATOM     12  C   UNL d   1       9.967   2.569 -14.687  0.00  0.00     0.042 C 
ATOM     13  C   UNL d   1       8.800   1.700 -15.194  0.00  0.00     0.006 C 
ATOM     14  C   UNL d   1       9.310   0.494 -15.998  0.00  0.00     0.000 C 
ATOM     15  C   UNL d   1      10.217   0.940 -17.156  0.00  0.00     0.000 C 
ATOM     16  C   UNL d   1      11.386   1.803 -16.655  0.00  0.00     0.000 C 
ATOM     17  C   UNL d   1      10.883   3.009 -15.848  0.00  0.00     0.006 C 
ENDBRANCH  10  12
ENDBRANCH   4   7
BRANCH   1  18
ATOM     18  C   UNL d   1       9.917   7.348  -7.026  0.00  0.00     0.255 C 
BRANCH  18  19
ATOM     19  C   UNL d   1      11.252   8.045  -6.711  0.00  0.00     0.062 C 
BRANCH  19  20
ATOM     20  C   UNL d   1      11.476   8.201  -5.217  0.00  0.00    -0.020 A 
ATOM     21  C   UNL d   1      11.589   9.476  -4.622  0.00  0.00    -0.004 A 
ATOM     22  C   UNL d   1      11.838   9.585  -3.240  0.00  0.00    -0.000 A 
ATOM     23  C   UNL d   1      11.979   8.428  -2.449  0.00  0.00    -0.000 A 
ATOM     24  C   UNL d   1      11.871   7.155  -3.038  0.00  0.00    -0.000 A 
ATOM     25  C   UNL d   1      11.633   7.045  -4.421  0.00  0.00    -0.004 A 
ENDBRANCH  19  20
ENDBRANCH  18  19
ENDBRANCH   1  18
TORSDOF 5
