REMARK  7 active torsions:
REMARK  status: ('A' for Active; 'I' for Inactive)
REMARK    1  A    between atoms: C_9  and  N_10 
REMARK    2  A    between atoms: N_13  and  C_14 
REMARK    3  A    between atoms: C_14  and  C_15 
REMARK    4  A    between atoms: C_15  and  C_16 
REMARK    5  A    between atoms: C_16  and  C_17 
REMARK    6  A    between atoms: C_17  and  O_18 
REMARK    7  A    between atoms: O_18  and  C_19 
ROOT
ATOM      1  N   UNL d   1       7.255   3.063 -14.040  0.00  0.00    -0.344 N 
ATOM      2  C   UNL d   1       6.588   4.129 -13.282  0.00  0.00     0.137 C 
ATOM      3  C   UNL d   1       7.435   4.563 -12.081  0.00  0.00     0.274 C 
ATOM      4  N   UNL d   1       8.786   4.934 -12.525  0.00  0.00     0.141 N 
ATOM      5  C   UNL d   1       9.436   3.763 -13.122  0.00  0.00     0.274 C 
ATOM      6  C   UNL d   1       8.664   3.337 -14.362  0.00  0.00     0.137 C 
ENDROOT
BRANCH   4   7
ATOM      7  C   UNL d   1       9.617   5.368 -11.418  0.00  0.00     0.251 C 
BRANCH   7   8
ATOM      8  C   UNL d   1       9.101   6.627 -10.727  0.00  0.00     0.038 C 
BRANCH   8   9
ATOM      9  C   UNL d   1      10.108   7.183  -9.720  0.00  0.00     0.035 C 
BRANCH   9  10
ATOM     10  C   UNL d   1       9.546   8.414  -8.983  0.00  0.00     0.149 C 
BRANCH  10  11
ATOM     11  O   UNL d   1      10.535   9.068  -8.208  0.00  0.00    -0.331 OA
BRANCH  11  12
ATOM     12  C   UNL d   1      10.840   8.569  -6.973  0.00  0.00     0.094 A 
ATOM     13  C   UNL d   1      11.607   9.379  -6.105  0.00  0.00     0.022 A 
ATOM     14  C   UNL d   1      11.895   8.885  -4.818  0.00  0.00     0.013 A 
ATOM     15  C   UNL d   1      11.481   7.641  -4.419  0.00  0.00     0.012 A 
ATOM     16  C   UNL d   1      12.611   9.531  -3.665  0.00  0.00     0.317 C 
ATOM     17  C   UNL d   1      10.748   6.812  -5.254  0.00  0.00    -0.001 A 
ATOM     18  C   UNL d   1      11.904   7.379  -3.007  0.00  0.00     0.317 C 
ATOM     19  C   UNL d   1      10.420   7.273  -6.547  0.00  0.00     0.024 A 
ATOM     20  N   UNL d   1      12.858   8.452  -2.689  0.00  0.00     0.349 N 
ENDBRANCH  11  12
ENDBRANCH  10  11
ENDBRANCH   9  10
ENDBRANCH   8   9
ENDBRANCH   7   8
ENDBRANCH   4   7
BRANCH   1  21
ATOM     21  C   UNL d   1       6.618   1.884 -14.362  0.00  0.00     0.056 A 
ATOM     22  C   UNL d   1       5.787   1.259 -13.387  0.00  0.00     0.017 A 
ATOM     23  C   UNL d   1       5.102   0.067 -13.660  0.00  0.00     0.002 A 
ATOM     24  C   UNL d   1       5.239  -0.553 -14.914  0.00  0.00     0.000 A 
ATOM     25  C   UNL d   1       6.046   0.034 -15.909  0.00  0.00     0.002 A 
ATOM     26  C   UNL d   1       6.146  -0.588 -17.173  0.00  0.00     0.002 A 
ATOM     27  C   UNL d   1       6.729   1.251 -15.649  0.00  0.00     0.018 A 
ATOM     28  C   UNL d   1       6.934  -0.011 -18.190  0.00  0.00     0.030 A 
ATOM     29  C   UNL d   1       7.593   1.202 -17.946  0.00  0.00     0.140 A 
ATOM     30  F   UNL d   1       8.344   1.782 -18.912  0.00  0.00    -0.204 F 
ATOM     31  C   UNL d   1       7.474   1.843 -16.703  0.00  0.00     0.031 A 
ENDBRANCH   1  21
TORSDOF 7
