REMARK  8 active torsions:
REMARK  status: ('A' for Active; 'I' for Inactive)
REMARK       I    between atoms: C_2  and  N_3 
REMARK    1  A    between atoms: C_2  and  C_21 
REMARK    2  A    between atoms: N_3  and  C_4 
REMARK    3  A    between atoms: C_4  and  C_5 
REMARK    4  A    between atoms: C_5  and  C_6 
REMARK    5  A    between atoms: C_6  and  C_7 
REMARK    6  A    between atoms: C_7  and  N_8 
REMARK    7  A    between atoms: N_11  and  C_12 
REMARK    8  A    between atoms: C_24  and  C_25 
ROOT
ATOM      1  C   UNL d   1       8.653   5.244 -12.294  0.00  0.00     0.129 C 
ENDROOT
BRANCH   1   2
ATOM      2  N   UNL d   1       9.039   5.707 -10.966  0.00  0.00    -0.234 NA
ATOM      3  C   UNL d   1       9.463   6.941 -10.687  0.00  0.00     0.275 C 
ATOM      4  O   UNL d   1       9.531   7.846 -11.520  0.00  0.00    -0.266 OA
BRANCH   3   5
ATOM      5  C   UNL d   1       9.941   7.163  -9.276  0.00  0.00     0.058 A 
ATOM      6  C   UNL d   1      11.048   8.002  -9.032  0.00  0.00     0.005 A 
ATOM      7  C   UNL d   1      11.491   8.235  -7.716  0.00  0.00     0.000 A 
ATOM      8  C   UNL d   1      10.837   7.641  -6.616  0.00  0.00     0.000 A 
ATOM      9  C   UNL d   1       9.715   6.821  -6.865  0.00  0.00     0.000 A 
ATOM     10  C   UNL d   1       9.270   6.577  -8.179  0.00  0.00     0.005 A 
BRANCH   8  11
ATOM     11  C   UNL d   1      11.309   7.872  -5.237  0.00  0.00     0.000 A 
ATOM     12  C   UNL d   1      11.620   9.172  -4.786  0.00  0.00     0.000 A 
ATOM     13  C   UNL d   1      12.058   9.386  -3.461  0.00  0.00     0.000 A 
ATOM     14  C   UNL d   1      12.222   8.300  -2.582  0.00  0.00     0.000 A 
ATOM     15  C   UNL d   1      11.915   7.000  -3.020  0.00  0.00     0.000 A 
ATOM     16  C   UNL d   1      11.459   6.798  -4.337  0.00  0.00     0.000 A 
ENDBRANCH   8  11
ENDBRANCH   3   5
ENDBRANCH   1   2
BRANCH   1  17
ATOM     17  C   UNL d   1       9.554   4.083 -12.748  0.00  0.00     0.029 C 
BRANCH  17  18
ATOM     18  C   UNL d   1       9.249   3.654 -14.190  0.00  0.00     0.037 C 
BRANCH  18  19
ATOM     19  C   UNL d   1       9.426   2.140 -14.421  0.00  0.00     0.251 C 
BRANCH  19  20
ATOM     20  N   UNL d   1       8.967   1.739 -15.755  0.00  0.00     0.141 N 
ATOM     21  C   UNL d   1       9.403   0.359 -16.020  0.00  0.00     0.274 C 
ATOM     22  C   UNL d   1       8.969  -0.096 -17.436  0.00  0.00     0.137 C 
ATOM     23  N   UNL d   1       7.526   0.076 -17.591  0.00  0.00    -0.344 N 
ATOM     24  C   UNL d   1       7.013   1.385 -17.229  0.00  0.00     0.137 C 
ATOM     25  C   UNL d   1       7.498   1.768 -15.822  0.00  0.00     0.274 C 
BRANCH  23  26
ATOM     26  C   UNL d   1       6.670  -0.980 -17.955  0.00  0.00     0.067 A 
ATOM     27  C   UNL d   1       5.535  -1.365 -17.183  0.00  0.00     0.073 A 
ATOM     28  C   UNL d   1       4.694  -2.402 -17.639  0.00  0.00     0.013 A 
ATOM     29 CL   UNL d   1       5.122  -0.684 -15.646  0.00  0.00    -0.081 Cl
ATOM     30  C   UNL d   1       4.963  -3.070 -18.835  0.00  0.00     0.001 A 
ATOM     31  C   UNL d   1       6.081  -2.717 -19.600  0.00  0.00     0.002 A 
ATOM     32  C   UNL d   1       6.938  -1.677 -19.157  0.00  0.00     0.018 A 
ENDBRANCH  23  26
ENDBRANCH  19  20
ENDBRANCH  18  19
ENDBRANCH  17  18
ENDBRANCH   1  17
TORSDOF 8
