REMARK  7 active torsions:
REMARK  status: ('A' for Active; 'I' for Inactive)
REMARK    1  A    between atoms: C_6  and  C_7 
REMARK    2  A    between atoms: C_10  and  S_11 
REMARK    3  A    between atoms: S_11  and  C_12 
REMARK    4  A    between atoms: C_12  and  C_13 
REMARK    5  A    between atoms: C_13  and  C_14 
REMARK    6  A    between atoms: C_14  and  N_15 
REMARK    7  A    between atoms: C_20  and  C_21 
ROOT
ATOM      1  C   UNL d   1       9.380   0.179 -15.704  0.00  0.00     0.047 C 
ENDROOT
BRANCH   1   2
ATOM      2  C   UNL d   1       9.938  -0.253 -17.081  0.00  0.00     0.067 C 
BRANCH   2   3
ATOM      3  S   UNL d   1      11.409   0.677 -17.625  0.00  0.00    -0.075 SA
BRANCH   3   4
ATOM      4  C   UNL d   1      10.676   2.203 -18.115  0.00  0.00     0.193 A 
ATOM      5  N   UNL d   1       9.371   2.393 -18.262  0.00  0.00    -0.122 NA
ATOM      6  N   UNL d   1       9.214   3.719 -18.554  0.00  0.00    -0.126 NA
ATOM      7  C   UNL d   1      10.455   4.233 -18.622  0.00  0.00     0.191 A 
ATOM      8  N   UNL d   1      11.413   3.316 -18.368  0.00  0.00    -0.287 N 
ATOM      9  C   UNL d   1      12.864   3.463 -18.402  0.00  0.00     0.134 C 
BRANCH   7  10
ATOM     10  C   UNL d   1      10.662   5.629 -18.994  0.00  0.00     0.151 A 
ATOM     11  C   UNL d   1       9.787   6.637 -19.334  0.00  0.00     0.087 A 
ATOM     12  C   UNL d   1       8.287   6.634 -19.396  0.00  0.00     0.054 C 
ATOM     13  N   UNL d   1      10.520   7.769 -19.652  0.00  0.00    -0.221 NA
ATOM     14  C   UNL d   1      11.787   7.403 -19.485  0.00  0.00     0.225 A 
ATOM     15  O   UNL d   1      11.942   6.111 -19.097  0.00  0.00    -0.282 OA
ENDBRANCH   7  10
ENDBRANCH   3   4
ENDBRANCH   2   3
ENDBRANCH   1   2
BRANCH   1  16
ATOM     16  C   UNL d   1       8.313   1.292 -15.767  0.00  0.00     0.251 C 
BRANCH  16  17
ATOM     17  N   UNL d   1       7.567   1.471 -14.546  0.00  0.00     0.137 N 
ATOM     18  C   UNL d   1       6.841   2.725 -14.613  0.00  0.00     0.251 C 
ATOM     19  C   UNL d   1       5.882   2.655 -13.436  0.00  0.00     0.037 A 
ATOM     20  C   UNL d   1       5.627   1.174 -13.269  0.00  0.00     0.038 C 
ATOM     21  C   UNL d   1       6.013   3.610 -12.277  0.00  0.00     0.024 A 
ATOM     22  C   UNL d   1       4.832   3.705 -13.195  0.00  0.00     0.007 A 
ATOM     23  C   UNL d   1       6.495   0.496 -14.343  0.00  0.00     0.250 C 
BRANCH  21  24
ATOM     24  C   UNL d   1       7.074   4.670 -12.281  0.00  0.00    -0.022 A 
ATOM     25  C   UNL d   1       8.451   4.333 -12.309  0.00  0.00    -0.004 A 
ATOM     26  C   UNL d   1       9.433   5.324 -12.381  0.00  0.00    -0.000 A 
ATOM     27  C   UNL d   1       9.055   6.680 -12.434  0.00  0.00    -0.000 A 
ATOM     28  C   UNL d   1       7.697   7.023 -12.429  0.00  0.00    -0.000 A 
ATOM     29  C   UNL d   1       6.710   6.030 -12.336  0.00  0.00    -0.004 A 
ENDBRANCH  21  24
ENDBRANCH  16  17
ENDBRANCH   1  16
TORSDOF 7
