REMARK  5 active torsions:
REMARK  status: ('A' for Active; 'I' for Inactive)
REMARK    1  A    between atoms: C_2  and  C_3 
REMARK       I    between atoms: N_11  and  C_12 
REMARK    2  A    between atoms: C_12  and  C_14 
REMARK    3  A    between atoms: C_14  and  N_15 
REMARK    4  A    between atoms: N_18  and  C_19 
REMARK    5  A    between atoms: C_19  and  C_20 
ROOT
ATOM      1  N   UNL d   1       8.986   6.671 -11.435  0.00  0.00     0.151 N 
ATOM      2  C   UNL d   1       9.014   6.156 -10.090  0.00  0.00     0.286 C 
ATOM      3  C   UNL d   1      10.237   6.568  -9.287  0.00  0.00     0.286 C 
ATOM      4  N   UNL d   1      10.447   8.027  -9.290  0.00  0.00     0.146 N 
ATOM      5  C   UNL d   1      10.495   8.526 -10.669  0.00  0.00     0.286 C 
ATOM      6  C   UNL d   1       9.269   8.129 -11.542  0.00  0.00     0.286 C 
ENDROOT
BRANCH   1   7
ATOM      7  C   UNL d   1       7.804   6.273 -12.239  0.00  0.00     0.337 C 
BRANCH   7   8
ATOM      8  C   UNL d   1       7.714   4.765 -12.579  0.00  0.00     0.271 C 
ATOM      9  N   UNL d   1       8.313   4.270 -13.718  0.00  0.00    -0.299 N 
ATOM     10  C   UNL d   1       9.215   5.008 -14.646  0.00  0.00     0.093 A 
ATOM     11  C   UNL d   1       7.990   3.042 -14.391  0.00  0.00     0.058 A 
ATOM     12  C   UNL d   1       9.482   4.152 -15.887  0.00  0.00     0.051 A 
ATOM     13  C   UNL d   1       8.665   2.937 -15.596  0.00  0.00    -0.004 A 
ATOM     14  C   UNL d   1       8.507   1.853 -16.474  0.00  0.00    -0.003 A 
ATOM     15  C   UNL d   1       7.620   0.826 -16.102  0.00  0.00    -0.000 A 
ATOM     16  C   UNL d   1       6.912   0.911 -14.903  0.00  0.00     0.002 A 
ATOM     17  C   UNL d   1       7.042   2.045 -14.050  0.00  0.00     0.017 A 
ATOM     18  O   UNL d   1       7.098   4.069 -11.782  0.00  0.00    -0.270 OA
BRANCH  10  19
ATOM     19  C   UNL d   1      10.565   5.455 -14.031  0.00  0.00     0.023 C 
ATOM     20  C   UNL d   1      11.357   4.264 -13.400  0.00  0.00     0.002 C 
ENDBRANCH  10  19
ENDBRANCH   7   8
ENDBRANCH   1   7
BRANCH   4  21
ATOM     21  C   UNL d   1      11.672   8.426  -8.580  0.00  0.00     0.277 C 
BRANCH  21  22
ATOM     22  C   UNL d   1      11.625   8.169  -7.074  0.00  0.00     0.011 A 
ATOM     23  C   UNL d   1      11.508   6.846  -6.569  0.00  0.00    -0.002 A 
ATOM     24  C   UNL d   1      11.423   6.647  -5.181  0.00  0.00     0.011 A 
ATOM     25  C   UNL d   1      11.565   7.706  -4.259  0.00  0.00     0.058 A 
ATOM     26  C   UNL d   1      11.718   9.021  -4.762  0.00  0.00     0.011 A 
ATOM     27 CL   UNL d   1      11.668   7.336  -2.567  0.00  0.00    -0.082 Cl
ATOM     28  C   UNL d   1      11.740   9.254  -6.161  0.00  0.00    -0.002 A 
ENDBRANCH  21  22
ENDBRANCH   4  21
TORSDOF 5
