REMARK  8 active torsions:
REMARK  status: ('A' for Active; 'I' for Inactive)
REMARK    1  A    between atoms: O_2  and  C_3 
REMARK    2  A    between atoms: C_3  and  C_4 
REMARK    3  A    between atoms: C_4  and  C_5 
REMARK    4  A    between atoms: C_5  and  O_6 
REMARK    5  A    between atoms: O_6  and  C_7 
REMARK    6  A    between atoms: C_11  and  C_12 
REMARK    7  A    between atoms: C_12  and  S_13 
REMARK    8  A    between atoms: S_13  and  C_15 
ROOT
ATOM      1  C   UNL d   1       8.034   3.571 -14.035  0.00  0.00     0.093 A 
ATOM      2  C   UNL d   1       9.323   3.478 -14.627  0.00  0.00     0.044 A 
ATOM      3  C   UNL d   1      10.357   4.219 -14.075  0.00  0.00     0.101 A 
ATOM      4  N   UNL d   1      10.244   5.023 -12.989  0.00  0.00    -0.248 NA
ATOM      5  C   UNL d   1       9.021   5.123 -12.434  0.00  0.00     0.071 A 
ATOM      6  C   UNL d   1       7.877   4.439 -12.922  0.00  0.00     0.015 A 
ATOM      7  C   UNL d   1       6.512   4.644 -12.269  0.00  0.00     0.034 C 
ENDROOT
BRANCH   5   8
ATOM      8  C   UNL d   1       8.993   6.047 -11.232  0.00  0.00     0.145 C 
BRANCH   8   9
ATOM      9  S   UNL d   1       9.462   5.095  -9.723  0.00  0.00     0.107 S 
ATOM     10  O   UNL d   1       8.264   4.579  -8.952  0.00  0.00    -0.248 OA
BRANCH   9  11
ATOM     11  C   UNL d   1       9.999   6.564  -8.833  0.00  0.00     0.221 A 
ATOM     12  N   UNL d   1       9.293   6.986  -7.791  0.00  0.00    -0.218 NA
ATOM     13  C   UNL d   1      10.022   8.011  -7.228  0.00  0.00     0.101 A 
ATOM     14  C   UNL d   1      11.185   8.117  -8.030  0.00  0.00     0.101 A 
ATOM     15  C   UNL d   1       9.794   8.882  -6.165  0.00  0.00     0.021 A 
ATOM     16  N   UNL d   1      11.136   7.211  -9.092  0.00  0.00    -0.218 NA
ATOM     17  C   UNL d   1      12.138   9.076  -7.628  0.00  0.00     0.021 A 
ATOM     18  C   UNL d   1      11.903   9.966  -6.542  0.00  0.00     0.002 A 
ATOM     19  C   UNL d   1      10.716   9.891  -5.819  0.00  0.00     0.002 A 
ENDBRANCH   9  11
ENDBRANCH   8   9
ENDBRANCH   5   8
BRANCH   1  20
ATOM     20  O   UNL d   1       6.890   2.925 -14.497  0.00  0.00    -0.331 OA
BRANCH  20  21
ATOM     21  C   UNL d   1       6.951   1.593 -14.987  0.00  0.00     0.151 C 
BRANCH  21  22
ATOM     22  C   UNL d   1       7.508   1.478 -16.451  0.00  0.00     0.065 C 
BRANCH  22  23
ATOM     23  C   UNL d   1       7.834   0.009 -16.789  0.00  0.00     0.145 C 
BRANCH  23  24
ATOM     24  O   UNL d   1       8.620   0.077 -17.981  0.00  0.00    -0.351 OA
ATOM     25  C   UNL d   1       9.066  -1.186 -18.417  0.00  0.00     0.174 C 
ENDBRANCH  23  24
ENDBRANCH  22  23
ENDBRANCH  21  22
ENDBRANCH  20  21
ENDBRANCH   1  20
TORSDOF 8
