REMARK  4 active torsions:
REMARK  status: ('A' for Active; 'I' for Inactive)
REMARK    1  A    between atoms: C_8  and  N_9 
REMARK    2  A    between atoms: N_9  and  C_10 
REMARK    3  A    between atoms: C_10  and  C_11 
REMARK    4  A    between atoms: C_11  and  N_12 
ROOT
ATOM      1 CL   UNL d   1       4.542  -1.526 -19.335  0.00  0.00    -0.082 Cl
ATOM      2  C   UNL d   1       4.937  -1.023 -17.734  0.00  0.00     0.058 A 
ATOM      3  C   UNL d   1       4.032  -1.240 -16.683  0.00  0.00     0.013 A 
ATOM      4  C   UNL d   1       4.351  -0.796 -15.388  0.00  0.00     0.020 A 
ATOM      5  C   UNL d   1       5.571  -0.131 -15.135  0.00  0.00     0.086 A 
ATOM      6  C   UNL d   1       6.510   0.055 -16.182  0.00  0.00     0.054 A 
ATOM      7  C   UNL d   1       6.167  -0.392 -17.486  0.00  0.00     0.016 A 
ATOM      8  C   UNL d   1       7.880   0.653 -15.984  0.00  0.00     0.160 C 
ATOM      9  N   UNL d   1       8.160   1.645 -15.198  0.00  0.00    -0.224 NA
ATOM     10  C   UNL d   1       7.267   2.293 -14.340  0.00  0.00     0.119 A 
ATOM     11  C   UNL d   1       7.559   3.640 -14.030  0.00  0.00     0.024 A 
ATOM     12  C   UNL d   1       6.765   4.336 -13.105  0.00  0.00     0.022 A 
ATOM     13  C   UNL d   1       5.714   3.644 -12.482  0.00  0.00     0.101 A 
ATOM     14  N   UNL d   1       5.420   2.358 -12.749  0.00  0.00    -0.224 NA
ATOM     15  C   UNL d   1       6.173   1.702 -13.654  0.00  0.00     0.180 A 
ATOM     16  N   UNL d   1       5.774   0.386 -13.858  0.00  0.00    -0.225 NA
ENDROOT
BRANCH   8  17
ATOM     17  N   UNL d   1       8.857   0.024 -16.744  0.00  0.00    -0.251 NA
BRANCH  17  18
ATOM     18  C   UNL d   1      10.189   0.547 -17.017  0.00  0.00     0.163 C 
BRANCH  18  19
ATOM     19  C   UNL d   1      10.730  -0.008 -18.337  0.00  0.00     0.277 C 
BRANCH  19  20
ATOM     20  N   UNL d   1      12.107   0.378 -18.641  0.00  0.00     0.144 N 
ATOM     21  C   UNL d   1      12.217   1.792 -18.997  0.00  0.00     0.282 C 
ATOM     22  C   UNL d   1      13.661   2.186 -19.348  0.00  0.00     0.178 C 
ATOM     23  O   UNL d   1      14.148   1.361 -20.402  0.00  0.00    -0.350 OA
ATOM     24  C   UNL d   1      14.100  -0.026 -20.073  0.00  0.00     0.178 C 
ATOM     25  C   UNL d   1      12.656  -0.429 -19.730  0.00  0.00     0.282 C 
ENDBRANCH  19  20
ENDBRANCH  18  19
ENDBRANCH  17  18
ENDBRANCH   8  17
TORSDOF 4
