REMARK  8 active torsions:
REMARK  status: ('A' for Active; 'I' for Inactive)
REMARK    1  A    between atoms: C_3  and  S_4 
REMARK    2  A    between atoms: S_4  and  C_5 
REMARK    3  A    between atoms: C_5  and  C_6 
REMARK    4  A    between atoms: C_6  and  C_7 
REMARK    5  A    between atoms: C_7  and  N_8 
REMARK    6  A    between atoms: C_12  and  C_13 
REMARK    7  A    between atoms: C_16  and  C_17 
REMARK    8  A    between atoms: C_26  and  C_27 
ROOT
ATOM      1  N   UNL d   1      11.077   3.883 -14.568  0.00  0.00     0.143 N 
ATOM      2  C   UNL d   1      10.579   5.145 -15.101  0.00  0.00     0.282 C 
ATOM      3  C   UNL d   1      11.629   5.864 -15.959  0.00  0.00     0.178 C 
ATOM      4  O   UNL d   1      12.047   5.011 -17.021  0.00  0.00    -0.348 OA
ATOM      5  C   UNL d   1      12.573   3.764 -16.567  0.00  0.00     0.171 C 
ATOM      6  C   UNL d   1      11.531   3.064 -15.669  0.00  0.00     0.284 C 
ENDROOT
BRANCH   1   7
ATOM      7  C   UNL d   1      10.053   3.162 -13.814  0.00  0.00     0.251 C 
BRANCH   7   8
ATOM      8  C   UNL d   1       9.595   3.890 -12.556  0.00  0.00     0.047 C 
BRANCH   8   9
ATOM      9  C   UNL d   1       8.280   4.676 -12.710  0.00  0.00     0.067 C 
BRANCH   9  10
ATOM     10  S   UNL d   1       8.498   6.443 -12.361  0.00  0.00    -0.075 SA
BRANCH  10  11
ATOM     11  C   UNL d   1       9.090   6.358 -10.699  0.00  0.00     0.193 A 
ATOM     12  N   UNL d   1       9.674   7.406 -10.082  0.00  0.00    -0.289 N 
ATOM     13  C   UNL d   1       9.864   8.756 -10.603  0.00  0.00     0.134 C 
ATOM     14  C   UNL d   1       9.933   6.900  -8.850  0.00  0.00     0.167 A 
ATOM     15  N   UNL d   1       9.560   5.620  -8.730  0.00  0.00    -0.128 NA
ATOM     16  N   UNL d   1       9.008   5.269  -9.937  0.00  0.00    -0.122 NA
BRANCH  14  17
ATOM     17  C   UNL d   1      10.505   7.603  -7.706  0.00  0.00     0.043 A 
ATOM     18  C   UNL d   1      10.177   7.410  -6.387  0.00  0.00     0.038 A 
ATOM     19  S   UNL d   1      11.060   8.467  -5.321  0.00  0.00    -0.086 SA
ATOM     20  C   UNL d   1      11.883   9.186  -6.677  0.00  0.00     0.035 A 
ATOM     21  C   UNL d   1      11.527   8.596  -7.865  0.00  0.00     0.011 A 
ENDBRANCH  14  17
ENDBRANCH  10  11
ENDBRANCH   9  10
ENDBRANCH   8   9
ENDBRANCH   7   8
ENDBRANCH   1   7
BRANCH   5  22
ATOM     22  C   UNL d   1      12.985   2.904 -17.758  0.00  0.00     0.007 A 
ATOM     23  C   UNL d   1      13.996   3.361 -18.634  0.00  0.00    -0.002 A 
ATOM     24  C   UNL d   1      14.381   2.580 -19.745  0.00  0.00     0.004 A 
ATOM     25  C   UNL d   1      13.762   1.334 -19.986  0.00  0.00     0.071 A 
ATOM     26  C   UNL d   1      12.753   0.881 -19.118  0.00  0.00     0.004 A 
ATOM     27  C   UNL d   1      12.370   1.654 -18.014  0.00  0.00    -0.002 A 
BRANCH  25  28
ATOM     28  C   UNL d   1      14.149   0.485 -21.184  0.00  0.00     0.419 C 
ATOM     29  F   UNL d   1      15.431   0.669 -21.499  0.00  0.00    -0.166 F 
ATOM     30  F   UNL d   1      13.958  -0.810 -20.925  0.00  0.00    -0.166 F 
ATOM     31  F   UNL d   1      13.387   0.832 -22.221  0.00  0.00    -0.166 F 
ENDBRANCH  25  28
ENDBRANCH   5  22
TORSDOF 8
