REMARK  8 active torsions:
REMARK  status: ('A' for Active; 'I' for Inactive)
REMARK    1  A    between atoms: O_2  and  C_3 
REMARK    2  A    between atoms: C_8  and  C_9 
REMARK       I    between atoms: C_9  and  N_11 
REMARK    3  A    between atoms: N_11  and  C_12 
REMARK    4  A    between atoms: C_12  and  C_13 
REMARK    5  A    between atoms: C_13  and  C_14 
REMARK    6  A    between atoms: C_14  and  C_16 
REMARK    7  A    between atoms: C_16  and  N_17 
REMARK    8  A    between atoms: N_20  and  C_21 
ROOT
ATOM      1  C   UNL d   1       9.735   4.676 -13.005  0.00  0.00     0.188 C 
ATOM      2  O   UNL d   1      10.961   4.833 -13.690  0.00  0.00    -0.221 OA
ENDROOT
BRANCH   1   3
ATOM      3  C   UNL d   1       9.877   5.157 -11.544  0.00  0.00     0.061 C 
BRANCH   3   4
ATOM      4  C   UNL d   1       8.666   5.602 -10.752  0.00  0.00     0.132 C 
BRANCH   4   5
ATOM      5  N   UNL d   1       9.143   6.094  -9.452  0.00  0.00    -0.233 NA
ATOM      6  C   UNL d   1       9.756   7.281  -9.235  0.00  0.00     0.293 C 
ATOM      7  O   UNL d   1       9.912   8.142 -10.097  0.00  0.00    -0.264 OA
BRANCH   6   8
ATOM      8  C   UNL d   1      10.221   7.520  -7.857  0.00  0.00     0.139 A 
ATOM      9  N   UNL d   1      10.462   8.808  -7.413  0.00  0.00    -0.241 NA
ATOM     10  C   UNL d   1      10.963   8.799  -6.126  0.00  0.00     0.082 A 
ATOM     11  C   UNL d   1      11.351   9.821  -5.246  0.00  0.00     0.021 A 
ATOM     12  C   UNL d   1      11.056   7.431  -5.757  0.00  0.00     0.021 A 
ATOM     13  C   UNL d   1      11.840   9.483  -3.971  0.00  0.00     0.026 A 
ATOM     14  C   UNL d   1      11.954   8.137  -3.578  0.00  0.00     0.094 A 
ATOM     15  C   UNL d   1      11.558   7.115  -4.477  0.00  0.00     0.026 A 
ATOM     16  C   UNL d   1      10.586   6.662  -6.864  0.00  0.00     0.026 A 
BRANCH  14  17
ATOM     17  O   UNL d   1      12.447   7.904  -2.319  0.00  0.00    -0.328 OA
ATOM     18  C   UNL d   1      12.656   6.556  -1.939  0.00  0.00     0.181 C 
ENDBRANCH  14  17
ENDBRANCH   6   8
ENDBRANCH   4   5
ENDBRANCH   3   4
ENDBRANCH   1   3
BRANCH   1  19
ATOM     19  C   UNL d   1       9.488   3.164 -13.084  0.00  0.00     0.283 C 
BRANCH  19  20
ATOM     20  N   UNL d   1       8.575   2.798 -14.135  0.00  0.00     0.144 N 
ATOM     21  C   UNL d   1       7.186   3.014 -13.704  0.00  0.00     0.274 C 
ATOM     22  C   UNL d   1       6.230   2.553 -14.775  0.00  0.00     0.137 C 
ATOM     23  N   UNL d   1       6.525   1.201 -15.225  0.00  0.00    -0.344 N 
ATOM     24  C   UNL d   1       7.863   1.000 -15.707  0.00  0.00     0.137 C 
ATOM     25  C   UNL d   1       8.782   1.408 -14.555  0.00  0.00     0.274 C 
BRANCH  23  26
ATOM     26  C   UNL d   1       5.487   0.267 -15.439  0.00  0.00     0.068 A 
ATOM     27  C   UNL d   1       5.253  -0.349 -16.683  0.00  0.00     0.084 A 
ATOM     28  C   UNL d   1       4.214  -1.307 -16.780  0.00  0.00     0.070 A 
ATOM     29 CL   UNL d   1       6.123   0.055 -18.131  0.00  0.00    -0.080 Cl
ATOM     30  C   UNL d   1       3.445  -1.562 -15.654  0.00  0.00     0.012 A 
ATOM     31 CL   UNL d   1       3.883  -2.137 -18.260  0.00  0.00    -0.081 Cl
ATOM     32  C   UNL d   1       3.635  -0.931 -14.430  0.00  0.00     0.002 A 
ATOM     33  C   UNL d   1       4.667  -0.004 -14.319  0.00  0.00     0.018 A 
ENDBRANCH  23  26
ENDBRANCH  19  20
ENDBRANCH   1  19
TORSDOF 8
