REMARK  9 active torsions:
REMARK  status: ('A' for Active; 'I' for Inactive)
REMARK    1  A    between atoms: O_2  and  C_3 
REMARK    2  A    between atoms: C_8  and  N_9 
REMARK    3  A    between atoms: N_12  and  C_13 
REMARK    4  A    between atoms: C_13  and  C_14 
REMARK    5  A    between atoms: C_14  and  C_15 
REMARK    6  A    between atoms: C_15  and  C_16 
REMARK    7  A    between atoms: C_16  and  C_17 
REMARK    8  A    between atoms: C_17  and  C_18 
REMARK    9  A    between atoms: N_20  and  C_21 
ROOT
ATOM      1  C   UNL d   1       8.118   6.239 -12.495  0.00  0.00     0.003 C 
ENDROOT
BRANCH   1   2
ATOM      2  C   UNL d   1       9.352   6.078 -11.600  0.00  0.00     0.035 C 
BRANCH   2   3
ATOM      3  C   UNL d   1       9.649   7.321 -10.760  0.00  0.00     0.250 C 
BRANCH   3   4
ATOM      4  N   UNL d   1      10.542   6.998  -9.655  0.00  0.00     0.141 N 
ATOM      5  C   UNL d   1       9.743   6.443  -8.550  0.00  0.00     0.274 C 
ATOM      6  C   UNL d   1      10.651   6.073  -7.374  0.00  0.00     0.137 C 
ATOM      7  N   UNL d   1      11.408   7.231  -6.957  0.00  0.00    -0.343 N 
ATOM      8  C   UNL d   1      12.162   7.897  -8.015  0.00  0.00     0.137 C 
ATOM      9  C   UNL d   1      11.220   8.217  -9.195  0.00  0.00     0.274 C 
BRANCH   7  10
ATOM     10  C   UNL d   1      11.456   7.616  -5.614  0.00  0.00     0.079 A 
ATOM     11  C   UNL d   1      11.378   8.980  -5.249  0.00  0.00     0.110 A 
ATOM     12  C   UNL d   1      11.482   9.342  -3.885  0.00  0.00     0.026 A 
ATOM     13  C   UNL d   1      11.698   8.372  -2.893  0.00  0.00     0.002 A 
ATOM     14  C   UNL d   1      11.770   7.019  -3.256  0.00  0.00     0.002 A 
ATOM     15  C   UNL d   1      11.652   6.656  -4.609  0.00  0.00     0.019 A 
BRANCH  11  16
ATOM     16  O   UNL d   1      11.095   9.888  -6.233  0.00  0.00    -0.327 OA
ATOM     17  C   UNL d   1      11.815  11.094  -6.131  0.00  0.00     0.181 C 
ENDBRANCH  11  16
ENDBRANCH   7  10
ENDBRANCH   3   4
ENDBRANCH   2   3
ENDBRANCH   1   2
BRANCH   1  18
ATOM     18  C   UNL d   1       8.045   5.150 -13.578  0.00  0.00     0.006 C 
BRANCH  18  19
ATOM     19  C   UNL d   1       8.295   3.735 -13.053  0.00  0.00     0.049 C 
BRANCH  19  20
ATOM     20  C   UNL d   1       7.944   2.682 -14.049  0.00  0.00     0.101 A 
ATOM     21  N   UNL d   1       8.911   2.077 -14.851  0.00  0.00    -0.133 NA
ATOM     22  N   UNL d   1       8.359   1.136 -15.540  0.00  0.00    -0.060 NA
ATOM     23  N   UNL d   1       7.027   1.170 -15.283  0.00  0.00    -0.209 N 
ATOM     24  C   UNL d   1       6.736   2.125 -14.325  0.00  0.00     0.119 A 
BRANCH  23  25
ATOM     25  C   UNL d   1       6.123   0.303 -15.938  0.00  0.00     0.085 A 
ATOM     26  C   UNL d   1       6.008   0.243 -17.359  0.00  0.00     0.021 A 
ATOM     27  C   UNL d   1       5.056  -0.637 -17.937  0.00  0.00     0.021 A 
ATOM     28  C   UNL d   1       6.779   1.039 -18.239  0.00  0.00     0.022 A 
ATOM     29  C   UNL d   1       4.237  -1.445 -17.122  0.00  0.00     0.002 A 
ATOM     30  C   UNL d   1       4.941  -0.689 -19.341  0.00  0.00     0.099 A 
ATOM     31  C   UNL d   1       4.346  -1.368 -15.725  0.00  0.00     0.002 A 
ATOM     32  C   UNL d   1       5.283  -0.500 -15.136  0.00  0.00     0.019 A 
ATOM     33  N   UNL d   1       5.694   0.058 -20.174  0.00  0.00    -0.242 NA
ATOM     34  C   UNL d   1       6.601   0.888 -19.626  0.00  0.00     0.099 A 
ENDBRANCH  23  25
ENDBRANCH  19  20
ENDBRANCH  18  19
ENDBRANCH   1  18
TORSDOF 9
