REMARK  4 active torsions:
REMARK  status: ('A' for Active; 'I' for Inactive)
REMARK    1  A    between atoms: C_2  and  N_3 
REMARK    2  A    between atoms: N_6  and  C_7 
REMARK    3  A    between atoms: N_15  and  S_16 
REMARK    4  A    between atoms: S_16  and  C_19 
ROOT
ATOM      1  C   UNL d   1       8.975   6.258 -11.148  0.00  0.00     0.054 A 
ATOM      2  C   UNL d   1       9.007   7.378 -11.987  0.00  0.00     0.017 A 
ATOM      3  C   UNL d   1       9.462   8.608 -11.479  0.00  0.00     0.003 A 
ATOM      4  C   UNL d   1       9.908   8.750 -10.143  0.00  0.00     0.018 A 
ATOM      5  C   UNL d   1       9.850   7.603  -9.328  0.00  0.00     0.068 A 
ATOM      6  C   UNL d   1       9.403   6.404  -9.820  0.00  0.00     0.012 A 
ATOM      7  C   UNL d   1       9.422   5.365  -8.758  0.00  0.00     0.055 C 
ATOM      8  C   UNL d   1      10.152   6.139  -7.644  0.00  0.00     0.123 C 
ATOM      9  N   UNL d   1      10.246   7.571  -7.986  0.00  0.00    -0.254 N 
ENDROOT
BRANCH   9  10
ATOM     10  S   UNL d   1      11.505   8.532  -7.305  0.00  0.00     0.268 S 
ATOM     11  O   UNL d   1      12.706   8.076  -8.048  0.00  0.00    -0.200 OA
ATOM     12  O   UNL d   1      11.102   9.926  -7.369  0.00  0.00    -0.200 OA
BRANCH  10  13
ATOM     13  C   UNL d   1      11.582   8.172  -5.572  0.00  0.00     0.104 A 
ATOM     14  C   UNL d   1      11.454   9.262  -4.667  0.00  0.00     0.013 A 
ATOM     15  C   UNL d   1      11.523   9.043  -3.266  0.00  0.00     0.001 A 
ATOM     16  C   UNL d   1      11.701   7.714  -2.789  0.00  0.00     0.000 A 
ATOM     17  C   UNL d   1      11.841   6.644  -3.706  0.00  0.00     0.001 A 
ATOM     18  C   UNL d   1      11.819   6.856  -5.102  0.00  0.00     0.013 A 
ENDBRANCH  10  13
ENDBRANCH   9  10
BRANCH   1  19
ATOM     19  N   UNL d   1       8.471   5.039 -11.593  0.00  0.00    -0.344 N 
ATOM     20  C   UNL d   1       7.106   4.656 -11.327  0.00  0.00     0.137 C 
ATOM     21  C   UNL d   1       6.424   4.237 -12.645  0.00  0.00     0.274 C 
ATOM     22  N   UNL d   1       7.239   3.234 -13.357  0.00  0.00     0.141 N 
ATOM     23  C   UNL d   1       8.590   3.750 -13.626  0.00  0.00     0.274 C 
ATOM     24  C   UNL d   1       9.309   4.138 -12.324  0.00  0.00     0.137 C 
BRANCH  22  25
ATOM     25  C   UNL d   1       6.610   2.791 -14.592  0.00  0.00     0.251 C 
ATOM     26  C   UNL d   1       5.989   1.399 -14.421  0.00  0.00     0.037 C 
ENDBRANCH  22  25
ENDBRANCH   1  19
TORSDOF 4
