REMARK  1 active torsions:
REMARK  status: ('A' for Active; 'I' for Inactive)
REMARK    1  A    between atoms: C_6  and  C_7 
ROOT
ATOM      1  C   UNL d   1      10.349   7.582  -8.149  0.00  0.00     0.038 A 
ATOM      2  C   UNL d   1      10.702   8.693  -8.873  0.00  0.00     0.100 A 
ATOM      3  N   UNL d   1      11.401   9.556  -8.060  0.00  0.00    -0.244 NA
ATOM      4  C   UNL d   1      11.540   9.047  -6.788  0.00  0.00     0.082 A 
ATOM      5  C   UNL d   1      12.160   9.568  -5.642  0.00  0.00     0.020 A 
ATOM      6  C   UNL d   1      12.158   8.812  -4.461  0.00  0.00     0.007 A 
ATOM      7  C   UNL d   1      11.542   7.554  -4.448  0.00  0.00     0.030 A 
ATOM      8  I   UNL d   1      11.604   6.461  -2.669  0.00  0.00    -0.043 I 
ATOM      9  C   UNL d   1      10.915   7.041  -5.611  0.00  0.00     0.007 A 
ATOM     10  C   UNL d   1      10.892   7.789  -6.824  0.00  0.00     0.021 A 
ENDROOT
BRANCH   1  11
ATOM     11  C   UNL d   1       9.580   6.456  -8.624  0.00  0.00     0.082 C 
ATOM     12  N   UNL d   1       9.537   5.992  -9.934  0.00  0.00    -0.307 N 
ATOM     13  C   UNL d   1      10.223   6.503 -11.088  0.00  0.00     0.132 C 
ATOM     14  C   UNL d   1       8.783   4.902  -9.920  0.00  0.00     0.179 C 
ATOM     15  N   UNL d   1       8.325   4.581  -8.728  0.00  0.00    -0.223 NA
ATOM     16  C   UNL d   1       8.729   5.632  -7.922  0.00  0.00     0.118 C 
ENDBRANCH   1  11
TORSDOF 1
