REMARK  5 active torsions:
REMARK  status: ('A' for Active; 'I' for Inactive)
REMARK    1  A    between atoms: C_5  and  C_6 
REMARK    2  A    between atoms: C_6  and  N_7 
REMARK    3  A    between atoms: C_11  and  C_12 
REMARK    4  A    between atoms: C_12  and  C_13 
REMARK    5  A    between atoms: C_13  and  C_14 
ROOT
ATOM      1  N   UNL d   1       9.899   6.961  -8.887  0.00  0.00     0.147 N 
ATOM      2  C   UNL d   1       9.928   5.633  -8.276  0.00  0.00     0.283 C 
ATOM      3  C   UNL d   1       8.748   4.751  -8.635  0.00  0.00     0.178 C 
ATOM      4  O   UNL d   1       8.652   4.669 -10.053  0.00  0.00    -0.352 OA
ATOM      5  C   UNL d   1       8.443   5.938 -10.646  0.00  0.00     0.149 C 
ATOM      6  C   UNL d   1       9.675   6.806 -10.334  0.00  0.00     0.280 C 
ENDROOT
BRANCH   1   7
ATOM      7  C   UNL d   1      11.094   7.765  -8.623  0.00  0.00     0.277 C 
BRANCH   7   8
ATOM      8  C   UNL d   1      11.274   8.202  -7.165  0.00  0.00     0.011 A 
ATOM      9  C   UNL d   1      11.276   9.573  -6.841  0.00  0.00    -0.000 A 
ATOM     10  C   UNL d   1      11.399  10.004  -5.502  0.00  0.00     0.027 A 
ATOM     11  C   UNL d   1      11.487   9.054  -4.477  0.00  0.00     0.131 A 
ATOM     12  O   UNL d   1      11.595   9.453  -3.172  0.00  0.00    -0.190 OA
ATOM     13  C   UNL d   1      11.485   7.678  -4.789  0.00  0.00     0.027 A 
ATOM     14  C   UNL d   1      11.451   7.265  -6.127  0.00  0.00    -0.000 A 
ENDBRANCH   7   8
ENDBRANCH   1   7
BRANCH   5  15
ATOM     15  C   UNL d   1       8.290   5.734 -12.154  0.00  0.00     0.036 C 
BRANCH  15  16
ATOM     16  C   UNL d   1       7.238   4.658 -12.530  0.00  0.00     0.029 C 
BRANCH  16  17
ATOM     17  C   UNL d   1       7.674   3.613 -13.555  0.00  0.00    -0.022 A 
ATOM     18  C   UNL d   1       9.027   3.364 -13.868  0.00  0.00    -0.004 A 
ATOM     19  C   UNL d   1       9.393   2.399 -14.818  0.00  0.00    -0.000 A 
ATOM     20  C   UNL d   1       8.407   1.625 -15.454  0.00  0.00    -0.000 A 
ATOM     21  C   UNL d   1       7.052   1.823 -15.132  0.00  0.00    -0.000 A 
ATOM     22  C   UNL d   1       6.686   2.815 -14.187  0.00  0.00    -0.004 A 
ENDBRANCH  16  17
ENDBRANCH  15  16
ENDBRANCH   5  15
TORSDOF 5
