REMARK  7 active torsions:
REMARK  status: ('A' for Active; 'I' for Inactive)
REMARK    1  A    between atoms: O_2  and  C_3 
REMARK    2  A    between atoms: C_3  and  C_5 
REMARK       I    between atoms: C_5  and  N_7 
REMARK    3  A    between atoms: N_7  and  C_8 
REMARK    4  A    between atoms: C_11  and  C_12 
REMARK    5  A    between atoms: C_12  and  C_13 
REMARK    6  A    between atoms: C_13  and  N_14 
REMARK    7  A    between atoms: C_17  and  C_18 
ROOT
ATOM      1  N   UNL d   1       7.785   4.436 -12.736  0.00  0.00     0.137 N 
ATOM      2  C   UNL d   1       6.536   3.671 -12.659  0.00  0.00     0.251 C 
ATOM      3  C   UNL d   1       6.279   2.962 -14.003  0.00  0.00     0.040 C 
ATOM      4  C   UNL d   1       7.466   2.095 -14.467  0.00  0.00     0.028 C 
ATOM      5  C   UNL d   1       8.760   2.916 -14.366  0.00  0.00     0.040 C 
ATOM      6  C   UNL d   1       8.937   3.564 -13.010  0.00  0.00     0.251 C 
ENDROOT
BRANCH   1   7
ATOM      7  C   UNL d   1       7.954   5.159 -11.481  0.00  0.00     0.250 C 
BRANCH   7   8
ATOM      8  C   UNL d   1       9.303   5.911 -11.409  0.00  0.00     0.035 C 
BRANCH   8   9
ATOM      9  C   UNL d   1       9.454   6.788 -10.170  0.00  0.00     0.002 C 
ATOM     10  C   UNL d   1       9.212   5.990  -8.871  0.00  0.00     0.002 C 
ATOM     11  C   UNL d   1       9.399   6.863  -7.641  0.00  0.00     0.024 C 
ATOM     12  C   UNL d   1      10.793   7.511  -7.628  0.00  0.00     0.106 C 
ATOM     13  C   UNL d   1      11.031   8.336  -8.899  0.00  0.00     0.024 C 
ATOM     14  C   UNL d   1      10.825   7.481 -10.142  0.00  0.00     0.002 C 
BRANCH  12  15
ATOM     15  N   UNL d   1      10.935   8.356  -6.462  0.00  0.00    -0.238 NA
ATOM     16  C   UNL d   1      11.068   7.892  -5.217  0.00  0.00     0.279 C 
ATOM     17  O   UNL d   1      11.090   6.690  -4.945  0.00  0.00    -0.268 OA
BRANCH  16  18
ATOM     18  C   UNL d   1      11.214   8.964  -4.136  0.00  0.00     0.195 C 
ATOM     19  C   UNL d   1      11.631   8.356  -2.737  0.00  0.00     0.042 C 
BRANCH  18  20
ATOM     20  O   UNL d   1      12.083   9.949  -4.664  0.00  0.00    -0.345 OA
ATOM     21  C   UNL d   1      13.451   9.708  -4.416  0.00  0.00     0.175 C 
ENDBRANCH  18  20
ENDBRANCH  16  18
ENDBRANCH  12  15
ENDBRANCH   8   9
ENDBRANCH   7   8
ENDBRANCH   1   7
BRANCH   4  22
ATOM     22  C   UNL d   1       7.246   1.537 -15.880  0.00  0.00     0.002 A 
ATOM     23  C   UNL d   1       6.283   0.531 -16.116  0.00  0.00     0.115 A 
ATOM     24  C   UNL d   1       6.031   0.044 -17.380  0.00  0.00     0.119 A 
ATOM     25  O   UNL d   1       5.455  -0.093 -15.227  0.00  0.00    -0.300 OA
ATOM     26  C   UNL d   1       6.730   0.521 -18.515  0.00  0.00     0.026 A 
ATOM     27  O   UNL d   1       5.053  -0.897 -17.333  0.00  0.00    -0.300 OA
ATOM     28  C   UNL d   1       7.709   1.517 -18.305  0.00  0.00     0.002 A 
ATOM     29  C   UNL d   1       7.968   2.015 -17.002  0.00  0.00    -0.002 A 
ATOM     30  C   UNL d   1       4.694  -1.004 -15.981  0.00  0.00     0.304 A 
ENDBRANCH   4  22
TORSDOF 7
