REMARK  1 active torsions:
REMARK  status: ('A' for Active; 'I' for Inactive)
REMARK    1  A    between atoms: C_4  and  C_5 
ROOT
ATOM      1  C   UNL d   1       9.866   3.674 -13.305  0.00  0.00     0.150 C 
ATOM      2  C   UNL d   1       9.690   2.721 -14.514  0.00  0.00     0.132 C 
ATOM      3  N   UNL d   1      10.515   3.336 -15.521  0.00  0.00    -0.326 N 
ATOM      4  C   UNL d   1      11.082   2.659 -16.668  0.00  0.00     0.116 C 
ATOM      5  C   UNL d   1      12.033   3.668 -17.331  0.00  0.00     0.089 C 
ATOM      6  S   UNL d   1      12.640   4.732 -15.993  0.00  0.00    -0.076 SA
ATOM      7  C   UNL d   1      11.335   4.206 -14.864  0.00  0.00     0.163 C 
ATOM      8  N   UNL d   1      11.058   4.453 -13.638  0.00  0.00    -0.245 NA
ENDROOT
BRANCH   1   9
ATOM      9  C   UNL d   1       8.647   4.561 -13.024  0.00  0.00     0.002 A 
ATOM     10  C   UNL d   1       8.793   5.934 -12.709  0.00  0.00    -0.002 A 
ATOM     11  C   UNL d   1       7.665   6.725 -12.437  0.00  0.00    -0.000 A 
ATOM     12  C   UNL d   1       6.378   6.156 -12.432  0.00  0.00    -0.000 A 
ATOM     13  C   UNL d   1       6.220   4.794 -12.743  0.00  0.00    -0.000 A 
ATOM     14  C   UNL d   1       7.347   4.000 -13.026  0.00  0.00    -0.002 A 
ENDBRANCH   1   9
TORSDOF 1
