REMARK  1 active torsions:
REMARK  status: ('A' for Active; 'I' for Inactive)
REMARK    1  A    between atoms: N_13  and  C_14 
ROOT
ATOM      1  F   UNL d   1      10.457   9.977  -6.787  0.00  0.00    -0.204 F 
ATOM      2  C   UNL d   1      10.317   9.080  -7.786  0.00  0.00     0.140 A 
ATOM      3  C   UNL d   1      10.756   9.382  -9.096  0.00  0.00     0.032 A 
ATOM      4  C   UNL d   1      10.693   8.463 -10.143  0.00  0.00     0.026 A 
ATOM      5  C   UNL d   1      10.188   7.185  -9.899  0.00  0.00     0.090 A 
ATOM      6  C   UNL d   1       9.741   6.880  -8.584  0.00  0.00     0.002 A 
ATOM      7  C   UNL d   1       9.774   7.816  -7.555  0.00  0.00     0.027 A 
ATOM      8  C   UNL d   1       9.222   5.514  -8.261  0.00  0.00     0.031 C 
ATOM      9  C   UNL d   1       9.571   4.511  -9.356  0.00  0.00     0.033 C 
ATOM     10  C   UNL d   1       9.341   5.127 -10.796  0.00  0.00     0.103 C 
ATOM     11  C   UNL d   1       7.897   5.605 -10.990  0.00  0.00     0.063 C 
ATOM     12  C   UNL d   1       7.645   6.169 -12.404  0.00  0.00     0.253 C 
ATOM     13  N   UNL d   1       7.878   5.110 -13.413  0.00  0.00     0.135 N 
ATOM     14  C   UNL d   1       9.311   4.786 -13.339  0.00  0.00     0.253 C 
ATOM     15  C   UNL d   1       9.636   4.189 -11.979  0.00  0.00     0.063 C 
ATOM     16  O   UNL d   1      10.149   6.298 -10.939  0.00  0.00    -0.336 OA
ENDROOT
BRANCH  13  17
ATOM     17  C   UNL d   1       7.040   3.906 -13.209  0.00  0.00     0.224 C 
ATOM     18  C   UNL d   1       7.441   2.736 -14.141  0.00  0.00     0.059 C 
ATOM     19  C   UNL d   1       6.511   1.546 -14.050  0.00  0.00    -0.024 C 
ATOM     20  C   UNL d   1       5.263   1.653 -13.440  0.00  0.00    -0.026 C 
ATOM     21  C   UNL d   1       6.865   0.330 -14.659  0.00  0.00    -0.004 C 
ATOM     22  C   UNL d   1       4.797   2.984 -12.817  0.00  0.00     0.028 C 
ATOM     23  C   UNL d   1       4.300   0.628 -13.626  0.00  0.00    -0.005 C 
ATOM     24  C   UNL d   1       5.561   4.217 -13.275  0.00  0.00     0.038 C 
ATOM     25  C   UNL d   1       4.646  -0.581 -14.251  0.00  0.00    -0.000 C 
ATOM     26  C   UNL d   1       5.949  -0.738 -14.740  0.00  0.00    -0.000 C 
ENDBRANCH  13  17
TORSDOF 1
