REMARK  9 active torsions:
REMARK  status: ('A' for Active; 'I' for Inactive)
REMARK    1  A    between atoms: O_2  and  C_3 
REMARK    2  A    between atoms: C_7  and  N_8 
REMARK    3  A    between atoms: N_11  and  C_12 
REMARK    4  A    between atoms: C_12  and  C_13 
REMARK    5  A    between atoms: C_13  and  C_14 
REMARK    6  A    between atoms: C_14  and  C_15 
REMARK    7  A    between atoms: C_15  and  C_16 
REMARK    8  A    between atoms: C_16  and  C_17 
REMARK    9  A    between atoms: C_17  and  N_18 
ROOT
ATOM      1  C   UNL d   1       8.491   1.863 -17.746  0.00  0.00     0.002 C 
ENDROOT
BRANCH   1   2
ATOM      2  C   UNL d   1       8.522   2.394 -16.313  0.00  0.00     0.002 C 
BRANCH   2   3
ATOM      3  C   UNL d   1       7.231   2.108 -15.542  0.00  0.00     0.035 C 
BRANCH   3   4
ATOM      4  C   UNL d   1       7.384   2.212 -14.031  0.00  0.00     0.250 C 
BRANCH   4   5
ATOM      5  N   UNL d   1       7.733   3.573 -13.595  0.00  0.00     0.141 N 
ATOM      6  C   UNL d   1       6.905   3.971 -12.443  0.00  0.00     0.274 C 
ATOM      7  C   UNL d   1       7.263   5.395 -11.971  0.00  0.00     0.137 C 
ATOM      8  N   UNL d   1       8.689   5.497 -11.705  0.00  0.00    -0.344 N 
ATOM      9  C   UNL d   1       9.562   5.037 -12.770  0.00  0.00     0.137 C 
ATOM     10  C   UNL d   1       9.152   3.615 -13.201  0.00  0.00     0.274 C 
BRANCH   8  11
ATOM     11  C   UNL d   1       9.178   5.974 -10.470  0.00  0.00     0.058 A 
ATOM     12  C   UNL d   1       8.659   5.476  -9.261  0.00  0.00     0.017 A 
ATOM     13  C   UNL d   1       9.130   5.980  -8.028  0.00  0.00     0.004 A 
ATOM     14  C   UNL d   1      10.168   6.929  -7.985  0.00  0.00     0.024 A 
ATOM     15  C   UNL d   1      10.713   7.421  -9.192  0.00  0.00     0.096 A 
ATOM     16  C   UNL d   1      10.197   6.952 -10.415  0.00  0.00     0.041 A 
BRANCH  15  17
ATOM     17  O   UNL d   1      11.729   8.347  -9.267  0.00  0.00    -0.328 OA
ATOM     18  C   UNL d   1      12.619   8.432  -8.167  0.00  0.00     0.181 C 
ENDBRANCH  15  17
ENDBRANCH   8  11
ENDBRANCH   4   5
ENDBRANCH   3   4
ENDBRANCH   2   3
ENDBRANCH   1   2
BRANCH   1  19
ATOM     19  C   UNL d   1       9.834   2.063 -18.460  0.00  0.00     0.025 C 
BRANCH  19  20
ATOM     20  C   UNL d   1       9.966   1.185 -19.718  0.00  0.00     0.112 C 
BRANCH  20  21
ATOM     21  N   UNL d   1      11.329   1.251 -20.291  0.00  0.00    -0.264 N 
ATOM     22  C   UNL d   1      12.251   0.333 -19.881  0.00  0.00     0.263 A 
ATOM     23  C   UNL d   1      13.632   0.395 -20.478  0.00  0.00     0.056 A 
ATOM     24  O   UNL d   1      12.003  -0.544 -19.046  0.00  0.00    -0.267 OA
ATOM     25  C   UNL d   1      14.628  -0.538 -20.113  0.00  0.00     0.005 A 
ATOM     26  C   UNL d   1      13.984   1.389 -21.426  0.00  0.00     0.009 A 
ATOM     27  C   UNL d   1      15.919  -0.487 -20.657  0.00  0.00     0.000 A 
ATOM     28  C   UNL d   1      16.245   0.501 -21.595  0.00  0.00     0.000 A 
ATOM     29  C   UNL d   1      15.287   1.451 -21.993  0.00  0.00     0.000 A 
ATOM     30  C   UNL d   1      15.574   2.459 -22.932  0.00  0.00     0.000 A 
ATOM     31  C   UNL d   1      14.592   3.390 -23.300  0.00  0.00     0.000 A 
ATOM     32  C   UNL d   1      13.313   3.314 -22.729  0.00  0.00     0.005 A 
ATOM     33  C   UNL d   1      12.976   2.317 -21.783  0.00  0.00     0.056 A 
ATOM     34  C   UNL d   1      11.598   2.251 -21.178  0.00  0.00     0.263 A 
ATOM     35  O   UNL d   1      10.762   3.098 -21.504  0.00  0.00    -0.267 OA
ENDBRANCH  20  21
ENDBRANCH  19  20
ENDBRANCH   1  19
TORSDOF 9
