REMARK  5 active torsions:
REMARK  status: ('A' for Active; 'I' for Inactive)
REMARK    1  A    between atoms: C_7  and  C_8 
REMARK    2  A    between atoms: C_8  and  C_9 
REMARK    3  A    between atoms: C_9  and  C_10 
REMARK    4  A    between atoms: C_10  and  C_11 
REMARK    5  A    between atoms: C_11  and  N_12 
ROOT
ATOM      1  C   UNL d   1       8.141   5.142 -12.419  0.00  0.00     0.009 C 
ENDROOT
BRANCH   1   2
ATOM      2  C   UNL d   1       7.776   5.229 -10.929  0.00  0.00     0.053 C 
BRANCH   2   3
ATOM      3  C   UNL d   1       8.743   6.003 -10.084  0.00  0.00     0.088 C 
ATOM      4  S   UNL d   1       9.756   7.311 -10.756  0.00  0.00    -0.071 SA
ATOM      5  C   UNL d   1      10.423   7.562  -9.178  0.00  0.00     0.048 A 
ATOM      6  C   UNL d   1      11.454   8.438  -8.812  0.00  0.00     0.009 A 
ATOM      7  C   UNL d   1       9.737   6.751  -8.225  0.00  0.00     0.088 A 
ATOM      8  C   UNL d   1      11.783   8.584  -7.457  0.00  0.00     0.012 A 
ATOM      9  C   UNL d   1      11.068   7.861  -6.482  0.00  0.00     0.059 A 
ATOM     10 CL   UNL d   1      11.462   8.072  -4.815  0.00  0.00    -0.082 Cl
ATOM     11  C   UNL d   1      10.062   6.952  -6.863  0.00  0.00     0.031 A 
ATOM     12  N   UNL d   1       8.852   5.821  -8.764  0.00  0.00    -0.243 NA
ENDBRANCH   2   3
ENDBRANCH   1   2
BRANCH   1  13
ATOM     13  C   UNL d   1       9.493   4.452 -12.670  0.00  0.00     0.036 C 
BRANCH  13  14
ATOM     14  C   UNL d   1       9.883   4.540 -14.144  0.00  0.00     0.250 C 
BRANCH  14  15
ATOM     15  N   UNL d   1      11.101   3.781 -14.437  0.00  0.00     0.137 N 
ATOM     16  C   UNL d   1      11.672   4.127 -15.709  0.00  0.00     0.250 C 
ATOM     17  C   UNL d   1      10.789   3.648 -16.894  0.00  0.00     0.033 C 
ATOM     18  C   UNL d   1      10.516   2.126 -16.808  0.00  0.00     0.004 C 
ATOM     19  C   UNL d   1      11.339   4.030 -18.284  0.00  0.00     0.002 C 
ATOM     20  C   UNL d   1      10.005   1.770 -15.406  0.00  0.00     0.035 C 
ATOM     21  C   UNL d   1      11.768   1.305 -17.204  0.00  0.00     0.000 C 
ATOM     22  C   UNL d   1      10.917   2.361 -14.314  0.00  0.00     0.250 C 
ATOM     23  C   UNL d   1      12.257   1.682 -18.606  0.00  0.00     0.000 C 
ATOM     24  C   UNL d   1      12.559   3.186 -18.699  0.00  0.00     0.000 C 
ENDBRANCH  14  15
ENDBRANCH  13  14
ENDBRANCH   1  13
TORSDOF 5
