REMARK  13 active torsions:
REMARK  status: ('A' for Active; 'I' for Inactive)
REMARK    1  A    between atoms: C_9  and  C_10 
REMARK    2  A    between atoms: C_10  and  C_12 
REMARK    3  A    between atoms: C_12  and  N_13 
REMARK    4  A    between atoms: N_13  and  C_14 
REMARK    5  A    between atoms: C_14  and  C_15 
REMARK    6  A    between atoms: C_15  and  S_16 
REMARK    7  A    between atoms: S_16  and  C_17 
REMARK    8  A    between atoms: C_17  and  C_18 
REMARK    9  A    between atoms: C_18  and  C_19 
REMARK   10  A    between atoms: C_19  and  O_20 
REMARK   11  A    between atoms: O_20  and  C_21 
REMARK   12  A    between atoms: C_21  and  C_22 
REMARK   13  A    between atoms: C_22  and  C_23 
ROOT
ATOM      1  N   UNL d   1       8.668   2.521 -15.095  0.00  0.00    -0.292 NA
ENDROOT
BRANCH   1   2
ATOM      2  C   UNL d   1       9.618   2.026 -16.086  0.00  0.00     0.157 C 
BRANCH   2   3
ATOM      3  C   UNL d   1       9.436   0.513 -16.327  0.00  0.00     0.199 C 
ATOM      4  O   UNL d   1      10.546   0.068 -17.086  0.00  0.00    -0.216 OA
BRANCH   3   5
ATOM      5  C   UNL d   1       8.097   0.196 -17.001  0.00  0.00     0.018 A 
ATOM      6  C   UNL d   1       8.000   0.121 -18.410  0.00  0.00     0.001 A 
ATOM      7  C   UNL d   1       6.765  -0.158 -19.039  0.00  0.00     0.029 A 
ATOM      8  C   UNL d   1       5.599  -0.363 -18.276  0.00  0.00     0.149 A 
ATOM      9  C   UNL d   1       5.699  -0.299 -16.877  0.00  0.00     0.116 A 
ATOM     10  O   UNL d   1       4.412  -0.617 -18.905  0.00  0.00    -0.189 OA
ATOM     11  N   UNL d   1       4.646  -0.495 -15.956  0.00  0.00    -0.200 NA
ATOM     12  C   UNL d   1       6.915  -0.023 -16.246  0.00  0.00     0.052 A 
ATOM     13  C   UNL d   1       4.974  -0.365 -14.617  0.00  0.00     0.311 A 
ATOM     14  O   UNL d   1       4.218  -0.420 -13.659  0.00  0.00    -0.258 OA
ATOM     15  S   UNL d   1       6.742  -0.019 -14.500  0.00  0.00    -0.024 SA
ENDBRANCH   3   5
ENDBRANCH   2   3
ENDBRANCH   1   2
BRANCH   1  16
ATOM     16  C   UNL d   1       8.902   3.882 -14.632  0.00  0.00     0.132 C 
BRANCH  16  17
ATOM     17  C   UNL d   1       8.021   4.170 -13.422  0.00  0.00     0.083 C 
BRANCH  17  18
ATOM     18  S   UNL d   1       8.391   5.789 -12.726  0.00  0.00    -0.138 SA
BRANCH  18  19
ATOM     19  C   UNL d   1       8.206   5.497 -10.945  0.00  0.00     0.060 C 
BRANCH  19  20
ATOM     20  C   UNL d   1       9.446   6.011 -10.204  0.00  0.00     0.044 C 
BRANCH  20  21
ATOM     21  C   UNL d   1       9.195   6.222  -8.715  0.00  0.00     0.143 C 
BRANCH  21  22
ATOM     22  O   UNL d   1      10.341   6.811  -8.150  0.00  0.00    -0.354 OA
BRANCH  22  23
ATOM     23  C   UNL d   1      10.210   7.025  -6.760  0.00  0.00     0.147 C 
BRANCH  23  24
ATOM     24  C   UNL d   1      11.210   8.125  -6.366  0.00  0.00     0.058 C 
BRANCH  24  25
ATOM     25  C   UNL d   1      11.513   8.178  -4.879  0.00  0.00    -0.020 A 
ATOM     26  C   UNL d   1      11.514   9.422  -4.203  0.00  0.00    -0.004 A 
ATOM     27  C   UNL d   1      11.860   9.468  -2.837  0.00  0.00    -0.000 A 
ATOM     28  C   UNL d   1      12.203   8.295  -2.144  0.00  0.00    -0.000 A 
ATOM     29  C   UNL d   1      12.195   7.055  -2.810  0.00  0.00    -0.000 A 
ATOM     30  C   UNL d   1      11.860   7.006  -4.186  0.00  0.00    -0.004 A 
ENDBRANCH  24  25
ENDBRANCH  23  24
ENDBRANCH  22  23
ENDBRANCH  21  22
ENDBRANCH  20  21
ENDBRANCH  19  20
ENDBRANCH  18  19
ENDBRANCH  17  18
ENDBRANCH  16  17
ENDBRANCH   1  16
TORSDOF 13
