REMARK  4 active torsions:
REMARK  status: ('A' for Active; 'I' for Inactive)
REMARK    1  A    between atoms: C_5  and  C_6 
REMARK    2  A    between atoms: C_6  and  N_7 
REMARK    3  A    between atoms: N_7  and  C_8 
REMARK    4  A    between atoms: C_15  and  C_16 
ROOT
ATOM      1  C   UNL d   1      10.372   7.371  -8.575  0.00  0.00     0.101 A 
ATOM      2  C   UNL d   1       9.729   6.167  -8.795  0.00  0.00     0.016 A 
ATOM      3  C   UNL d   1       9.345   5.749 -10.089  0.00  0.00    -0.022 A 
ATOM      4  C   UNL d   1       9.615   6.586 -11.200  0.00  0.00    -0.018 A 
ATOM      5  C   UNL d   1      10.193   7.828 -10.938  0.00  0.00     0.025 A 
ATOM      6  C   UNL d   1      10.622   8.246  -9.651  0.00  0.00     0.148 A 
ATOM      7  O   UNL d   1      11.291   9.406  -9.495  0.00  0.00    -0.189 OA
ATOM      8  C   UNL d   1       9.234   6.221 -12.659  0.00  0.00     0.078 C 
ATOM      9  C   UNL d   1       7.735   5.950 -12.770  0.00  0.00     0.259 C 
ATOM     10  N   UNL d   1       7.316   4.612 -12.372  0.00  0.00     0.140 N 
ATOM     11  C   UNL d   1       5.960   4.359 -12.887  0.00  0.00     0.285 C 
ATOM     12  C   UNL d   1       7.354   4.465 -10.924  0.00  0.00     0.255 C 
ATOM     13  C   UNL d   1       8.703   4.426 -10.190  0.00  0.00     0.061 C 
ENDROOT
BRANCH   1  14
ATOM     14  N   UNL d   1      10.818   7.771  -7.300  0.00  0.00    -0.264 NA
BRANCH  14  15
ATOM     15  C   UNL d   1      10.474   7.003  -6.123  0.00  0.00     0.152 C 
BRANCH  15  16
ATOM     16  C   UNL d   1      11.192   7.502  -4.890  0.00  0.00     0.002 A 
ATOM     17  C   UNL d   1      11.412   6.617  -3.823  0.00  0.00    -0.003 A 
ATOM     18  C   UNL d   1      11.998   7.039  -2.622  0.00  0.00    -0.004 A 
ATOM     19  C   UNL d   1      12.427   8.364  -2.513  0.00  0.00    -0.022 A 
ATOM     20  C   UNL d   1      13.102   8.826  -1.256  0.00  0.00     0.031 C 
ATOM     21  C   UNL d   1      12.254   9.251  -3.588  0.00  0.00    -0.004 A 
ATOM     22  C   UNL d   1      11.626   8.835  -4.774  0.00  0.00    -0.003 A 
ENDBRANCH  15  16
ENDBRANCH  14  15
ENDBRANCH   1  14
BRANCH   8  23
ATOM     23  C   UNL d   1      10.097   5.160 -13.437  0.00  0.00    -0.017 C 
ATOM     24  C   UNL d   1      11.013   5.580 -14.472  0.00  0.00    -0.004 C 
ATOM     25  C   UNL d   1      11.874   4.634 -15.120  0.00  0.00    -0.000 C 
ATOM     26  C   UNL d   1      11.813   3.288 -14.755  0.00  0.00    -0.000 C 
ATOM     27  C   UNL d   1      10.858   2.882 -13.806  0.00  0.00    -0.000 C 
ATOM     28  C   UNL d   1       9.983   3.804 -13.202  0.00  0.00    -0.004 C 
ENDBRANCH   8  23
TORSDOF 4
