REMARK  5 active torsions:
REMARK  status: ('A' for Active; 'I' for Inactive)
REMARK    1  A    between atoms: C_2  and  C_3 
REMARK    2  A    between atoms: C_3  and  N_4 
REMARK    3  A    between atoms: N_4  and  C_5 
REMARK    4  A    between atoms: N_4  and  C_8 
REMARK    5  A    between atoms: C_5  and  C_6 
ROOT
ATOM      1  C   UNL d   1       8.685   5.744 -10.823  0.00  0.00     0.224 C 
ATOM      2  C   UNL d   1       8.841   4.735  -9.671  0.00  0.00     0.039 C 
ATOM      3  C   UNL d   1       9.027   5.443  -8.322  0.00  0.00     0.035 C 
ATOM      4  C   UNL d   1       9.951   6.605  -8.415  0.00  0.00     0.003 A 
ATOM      5  S   UNL d   1      10.774   7.285  -7.043  0.00  0.00    -0.091 SA
ATOM      6  C   UNL d   1      11.566   8.461  -8.061  0.00  0.00     0.035 A 
ATOM      7  C   UNL d   1      11.225   8.303  -9.380  0.00  0.00     0.003 A 
ATOM      8  C   UNL d   1      10.307   7.231  -9.570  0.00  0.00    -0.018 A 
ATOM      9  C   UNL d   1       9.821   6.784 -10.910  0.00  0.00     0.060 C 
ENDROOT
BRANCH   1  10
ATOM     10  N   UNL d   1       8.370   5.104 -12.125  0.00  0.00     0.135 N 
BRANCH  10  11
ATOM     11  C   UNL d   1       9.444   4.214 -12.616  0.00  0.00     0.250 C 
BRANCH  11  12
ATOM     12  C   UNL d   1       9.123   3.421 -13.890  0.00  0.00     0.035 C 
ATOM     13  C   UNL d   1      10.357   2.668 -14.382  0.00  0.00     0.002 C 
ENDBRANCH  11  12
ENDBRANCH  10  11
BRANCH  10  14
ATOM     14  C   UNL d   1       7.981   6.049 -13.165  0.00  0.00     0.250 C 
BRANCH  14  15
ATOM     15  C   UNL d   1       7.016   7.208 -12.767  0.00  0.00     0.035 C 
ATOM     16  C   UNL d   1       5.689   6.682 -12.251  0.00  0.00     0.002 C 
ENDBRANCH  14  15
ENDBRANCH  10  14
ENDBRANCH   1  10
TORSDOF 5
