REMARK  1 active torsions:
REMARK  status: ('A' for Active; 'I' for Inactive)
REMARK    1  A    between atoms: C_2  and  C_4 
ROOT
ATOM      1  C   UNL d   1      11.832   8.504  -7.753  0.00  0.00     0.047 C 
ATOM      2  C   UNL d   1      11.236   9.137  -6.487  0.00  0.00     0.238 C 
ATOM      3  O   UNL d   1      11.856  10.389  -6.277  0.00  0.00    -0.212 OA
ENDROOT
BRANCH   2   4
ATOM      4  C   UNL d   1      11.414   8.240  -5.253  0.00  0.00     0.217 C 
ATOM      5  O   UNL d   1      11.924   8.616  -4.199  0.00  0.00    -0.646 OA
ATOM      6  O   UNL d   1      10.922   6.988  -5.472  0.00  0.00    -0.646 OA
ENDBRANCH   2   4
TORSDOF 1
