REMARK  7 active torsions:
REMARK  status: ('A' for Active; 'I' for Inactive)
REMARK       I    between atoms: C_2  and  N_4 
REMARK    1  A    between atoms: N_7  and  C_8 
REMARK    2  A    between atoms: C_11  and  O_12 
REMARK    3  A    between atoms: O_12  and  C_13 
REMARK    4  A    between atoms: C_13  and  C_14 
REMARK    5  A    between atoms: C_17  and  C_18 
REMARK    6  A    between atoms: C_17  and  C_24 
REMARK    7  A    between atoms: C_18  and  N_19 
ROOT
ATOM      1  C   UNL d   1       8.622   3.785 -13.334  0.00  0.00     0.178 C 
ATOM      2  C   UNL d   1       8.499   3.889 -14.844  0.00  0.00     0.177 C 
ATOM      3  O   UNL d   1       9.266   2.878 -15.470  0.00  0.00    -0.327 OA
ATOM      4  C   UNL d   1       9.135   1.843 -14.554  0.00  0.00     0.230 C 
ATOM      5  O   UNL d   1       9.079   2.440 -13.263  0.00  0.00    -0.327 OA
ENDROOT
BRANCH   1   6
ATOM      6  C   UNL d   1       7.220   4.093 -12.654  0.00  0.00     0.181 C 
BRANCH   6   7
ATOM      7  O   UNL d   1       7.188   4.034 -11.236  0.00  0.00    -0.328 OA
BRANCH   7   8
ATOM      8  C   UNL d   1       8.051   4.837 -10.518  0.00  0.00     0.094 A 
ATOM      9  C   UNL d   1       8.322   4.474  -9.199  0.00  0.00     0.026 A 
ATOM     10  C   UNL d   1       9.107   5.249  -8.377  0.00  0.00     0.019 A 
ATOM     11  C   UNL d   1       9.725   6.408  -8.904  0.00  0.00     0.056 A 
ATOM     12  C   UNL d   1       9.545   6.753 -10.270  0.00  0.00     0.019 A 
ATOM     13  C   UNL d   1       8.716   5.969 -11.084  0.00  0.00     0.026 A 
BRANCH  11  14
ATOM     14  N   UNL d   1      10.497   7.184  -8.055  0.00  0.00    -0.344 N 
ATOM     15  C   UNL d   1      10.376   8.621  -8.162  0.00  0.00     0.126 C 
ATOM     16  C   UNL d   1       9.877   9.195  -6.840  0.00  0.00     0.128 C 
ATOM     17  N   UNL d   1      10.663   8.726  -5.715  0.00  0.00    -0.316 N 
ATOM     18  C   UNL d   1      11.337   9.590  -4.907  0.00  0.00     0.234 C 
ATOM     19  C   UNL d   1      10.668   7.271  -5.566  0.00  0.00     0.128 C 
ATOM     20  C   UNL d   1      12.527   9.110  -4.073  0.00  0.00     0.098 C 
ATOM     21  O   UNL d   1      11.039  10.776  -4.878  0.00  0.00    -0.272 OA
ATOM     22  C   UNL d   1      11.203   6.664  -6.880  0.00  0.00     0.126 C 
ENDBRANCH  11  14
ENDBRANCH   7   8
ENDBRANCH   6   7
ENDBRANCH   1   6
BRANCH   4  23
ATOM     23  C   UNL d   1      10.352   0.920 -14.600  0.00  0.00     0.169 C 
BRANCH  23  24
ATOM     24  N   UNL d   1      10.708   0.598 -15.948  0.00  0.00    -0.303 N 
ATOM     25  C   UNL d   1      10.257  -0.412 -16.703  0.00  0.00     0.179 A 
ATOM     26  N   UNL d   1      10.759  -0.450 -17.931  0.00  0.00    -0.223 NA
ATOM     27  C   UNL d   1      11.609   0.654 -17.974  0.00  0.00     0.119 A 
ATOM     28  C   UNL d   1      11.576   1.309 -16.766  0.00  0.00     0.098 A 
ENDBRANCH  23  24
ENDBRANCH   4  23
BRANCH   4  29
ATOM     29  C   UNL d   1       7.845   1.035 -14.804  0.00  0.00     0.041 A 
ATOM     30  C   UNL d   1       7.136   1.085 -16.030  0.00  0.00     0.059 A 
ATOM     31  C   UNL d   1       5.923   0.371 -16.220  0.00  0.00     0.023 A 
ATOM     32 CL   UNL d   1       7.726   1.951 -17.414  0.00  0.00    -0.083 Cl
ATOM     33  C   UNL d   1       5.462  -0.481 -15.196  0.00  0.00     0.059 A 
ATOM     34  C   UNL d   1       6.214  -0.602 -14.009  0.00  0.00     0.011 A 
ATOM     35 CL   UNL d   1       4.022  -1.413 -15.437  0.00  0.00    -0.082 Cl
ATOM     36  C   UNL d   1       7.371   0.154 -13.806  0.00  0.00     0.002 A 
ENDBRANCH   4  29
TORSDOF 7
