REMARK  7 active torsions:
REMARK  status: ('A' for Active; 'I' for Inactive)
REMARK    1  A    between atoms: C_6  and  C_7 
REMARK    2  A    between atoms: C_10  and  S_11 
REMARK    3  A    between atoms: S_11  and  C_12 
REMARK    4  A    between atoms: C_12  and  C_13 
REMARK    5  A    between atoms: C_13  and  C_14 
REMARK    6  A    between atoms: C_14  and  N_15 
REMARK    7  A    between atoms: C_19  and  C_20 
ROOT
ATOM      1  C   UNL d   1       9.326   5.784 -10.725  0.00  0.00     0.047 C 
ENDROOT
BRANCH   1   2
ATOM      2  C   UNL d   1       8.730   4.453 -11.139  0.00  0.00     0.067 C 
BRANCH   2   3
ATOM      3  S   UNL d   1       7.768   4.585 -12.679  0.00  0.00    -0.075 SA
BRANCH   3   4
ATOM      4  C   UNL d   1       8.976   3.924 -13.759  0.00  0.00     0.193 A 
ATOM      5  N   UNL d   1      10.214   4.411 -13.867  0.00  0.00    -0.122 NA
ATOM      6  N   UNL d   1      10.844   3.580 -14.758  0.00  0.00    -0.126 NA
ATOM      7  C   UNL d   1       9.937   2.654 -15.111  0.00  0.00     0.191 A 
ATOM      8  N   UNL d   1       8.734   2.856 -14.538  0.00  0.00    -0.287 N 
ATOM      9  C   UNL d   1       7.493   2.100 -14.702  0.00  0.00     0.134 C 
BRANCH   7  10
ATOM     10  C   UNL d   1      10.276   1.574 -16.032  0.00  0.00     0.151 A 
ATOM     11  C   UNL d   1      11.307   1.404 -16.919  0.00  0.00     0.087 A 
ATOM     12  C   UNL d   1      12.449   2.316 -17.250  0.00  0.00     0.054 C 
ATOM     13  N   UNL d   1      11.150   0.174 -17.547  0.00  0.00    -0.221 NA
ATOM     14  C   UNL d   1      10.050  -0.337 -17.006  0.00  0.00     0.225 A 
ATOM     15  O   UNL d   1       9.464   0.466 -16.080  0.00  0.00    -0.282 OA
ENDBRANCH   7  10
ENDBRANCH   3   4
ENDBRANCH   2   3
ENDBRANCH   1   2
BRANCH   1  16
ATOM     16  C   UNL d   1       9.803   5.765  -9.250  0.00  0.00     0.251 C 
BRANCH  16  17
ATOM     17  N   UNL d   1      10.271   7.040  -8.730  0.00  0.00     0.143 N 
ATOM     18  C   UNL d   1      10.755   6.889  -7.380  0.00  0.00     0.284 C 
ATOM     19  C   UNL d   1      11.114   8.232  -6.646  0.00  0.00     0.171 C 
ATOM     20  O   UNL d   1      10.010   9.121  -6.733  0.00  0.00    -0.348 OA
ATOM     21  C   UNL d   1       9.548   9.287  -8.057  0.00  0.00     0.178 C 
ATOM     22  C   UNL d   1       9.194   7.985  -8.689  0.00  0.00     0.282 C 
BRANCH  19  23
ATOM     23  C   UNL d   1      11.492   8.066  -5.184  0.00  0.00     0.007 A 
ATOM     24  C   UNL d   1      11.763   6.810  -4.633  0.00  0.00     0.000 A 
ATOM     25  C   UNL d   1      12.150   6.716  -3.289  0.00  0.00     0.029 A 
ATOM     26  C   UNL d   1      12.265   7.870  -2.513  0.00  0.00     0.140 A 
ATOM     27  C   UNL d   1      12.033   9.126  -3.067  0.00  0.00     0.029 A 
ATOM     28  F   UNL d   1      12.660   7.784  -1.238  0.00  0.00    -0.204 F 
ATOM     29  C   UNL d   1      11.642   9.234  -4.414  0.00  0.00     0.000 A 
ENDBRANCH  19  23
ENDBRANCH  16  17
ENDBRANCH   1  16
TORSDOF 7
