REMARK  0 active torsions:
REMARK  status: ('A' for Active; 'I' for Inactive)
ROOT
ATOM      1  O   UNL d   1      13.030   9.133  -1.252  0.00  0.00    -0.190 OA
ATOM      2  C   UNL d   1      12.472   8.620  -2.373  0.00  0.00     0.131 A 
ATOM      3  C   UNL d   1      12.523   7.229  -2.604  0.00  0.00     0.027 A 
ATOM      4  C   UNL d   1      12.029   6.703  -3.803  0.00  0.00    -0.002 A 
ATOM      5  C   UNL d   1      11.418   7.531  -4.747  0.00  0.00    -0.022 A 
ATOM      6  C   UNL d   1      11.330   8.925  -4.498  0.00  0.00     0.009 A 
ATOM      7  C   UNL d   1      11.852   9.464  -3.313  0.00  0.00     0.025 A 
ATOM      8  C   UNL d   1      10.572   9.811  -5.455  0.00  0.00     0.277 C 
ATOM      9  N   UNL d   1      10.316   9.214  -6.760  0.00  0.00     0.144 N 
ATOM     10  C   UNL d   1      11.510   9.350  -7.554  0.00  0.00     0.256 C 
ATOM     11  C   UNL d   1      11.171   9.117  -9.024  0.00  0.00     0.061 C 
ATOM     12  C   UNL d   1      10.308   7.893  -9.239  0.00  0.00    -0.020 A 
ATOM     13  C   UNL d   1      10.134   7.420 -10.546  0.00  0.00     0.022 A 
ATOM     14  C   UNL d   1       9.336   6.287 -10.747  0.00  0.00     0.119 A 
ATOM     15  C   UNL d   1       8.698   5.666  -9.684  0.00  0.00     0.119 A 
ATOM     16  C   UNL d   1       8.815   6.142  -8.369  0.00  0.00     0.024 A 
ATOM     17  C   UNL d   1       9.633   7.277  -8.143  0.00  0.00     0.007 A 
ATOM     18  C   UNL d   1       9.829   7.830  -6.738  0.00  0.00     0.246 C 
ATOM     19  C   UNL d   1      10.829   6.924  -5.997  0.00  0.00     0.064 C 
ATOM     20  O   UNL d   1       7.945   4.645 -10.158  0.00  0.00    -0.300 OA
ATOM     21  C   UNL d   1       8.097   4.658 -11.548  0.00  0.00     0.304 A 
ATOM     22  O   UNL d   1       8.991   5.677 -11.907  0.00  0.00    -0.300 OA
ENDROOT
TORSDOF 0
