REMARK  3 active torsions:
REMARK  status: ('A' for Active; 'I' for Inactive)
REMARK    1  A    between atoms: C_5  and  N_6 
REMARK    2  A    between atoms: N_9  and  C_10 
REMARK    3  A    between atoms: C_10  and  C_11 
ROOT
ATOM      1  N   UNL d   1      11.176   7.227  -8.117  0.00  0.00    -0.344 N 
ATOM      2  C   UNL d   1      10.354   6.054  -8.388  0.00  0.00     0.137 C 
ATOM      3  C   UNL d   1       9.328   6.391  -9.479  0.00  0.00     0.275 C 
ATOM      4  N   UNL d   1       9.980   6.912 -10.684  0.00  0.00     0.145 N 
ATOM      5  C   UNL d   1      10.670   8.160 -10.330  0.00  0.00     0.275 C 
ATOM      6  C   UNL d   1      11.764   7.878  -9.283  0.00  0.00     0.137 C 
ENDROOT
BRANCH   4   7
ATOM      7  C   UNL d   1       9.017   7.207 -11.743  0.00  0.00     0.277 C 
BRANCH   7   8
ATOM      8  C   UNL d   1       8.316   5.986 -12.302  0.00  0.00     0.013 A 
ATOM      9  C   UNL d   1       9.021   5.096 -13.137  0.00  0.00     0.023 A 
ATOM     10  C   UNL d   1       8.383   3.952 -13.646  0.00  0.00     0.112 A 
ATOM     11  C   UNL d   1       7.025   3.711 -13.338  0.00  0.00     0.107 A 
ATOM     12  O   UNL d   1       9.074   3.092 -14.471  0.00  0.00    -0.319 OA
ATOM     13  C   UNL d   1       6.316   4.589 -12.494  0.00  0.00     0.021 A 
ATOM     14  N   UNL d   1       6.386   2.589 -13.904  0.00  0.00    -0.208 NA
ATOM     15  C   UNL d   1       6.966   5.726 -11.975  0.00  0.00    -0.001 A 
ATOM     16  C   UNL d   1       7.062   1.636 -14.555  0.00  0.00     0.286 C 
ATOM     17  C   UNL d   1       8.600   1.740 -14.548  0.00  0.00     0.238 C 
ATOM     18  O   UNL d   1       6.497   0.698 -15.108  0.00  0.00    -0.267 OA
ENDBRANCH   7   8
ENDBRANCH   4   7
BRANCH   1  19
ATOM     19  C   UNL d   1      11.329   7.734  -6.815  0.00  0.00     0.056 A 
ATOM     20  C   UNL d   1      11.431   6.848  -5.720  0.00  0.00     0.017 A 
ATOM     21  C   UNL d   1      11.599   7.337  -4.412  0.00  0.00    -0.003 A 
ATOM     22  C   UNL d   1      11.671   8.726  -4.189  0.00  0.00    -0.022 A 
ATOM     23  C   UNL d   1      11.860   9.270  -2.801  0.00  0.00     0.031 C 
ATOM     24  C   UNL d   1      11.566   9.613  -5.276  0.00  0.00    -0.003 A 
ATOM     25  C   UNL d   1      11.401   9.126  -6.583  0.00  0.00     0.017 A 
ENDBRANCH   1  19
TORSDOF 3
