REMARK  4 active torsions:
REMARK  status: ('A' for Active; 'I' for Inactive)
REMARK    1  A    between atoms: C_2  and  C_3 
REMARK       I    between atoms: C_2  and  N_18 
REMARK    2  A    between atoms: C_3  and  N_4 
REMARK    3  A    between atoms: N_7  and  C_8 
REMARK    4  A    between atoms: C_8  and  C_9 
ROOT
ATOM      1  N   UNL d   1       7.161   4.111 -12.290  0.00  0.00     0.151 N 
ATOM      2  C   UNL d   1       5.793   3.580 -12.272  0.00  0.00     0.286 C 
ATOM      3  C   UNL d   1       5.679   2.173 -12.930  0.00  0.00     0.286 C 
ATOM      4  N   UNL d   1       6.221   2.154 -14.294  0.00  0.00     0.146 N 
ATOM      5  C   UNL d   1       7.572   2.703 -14.284  0.00  0.00     0.286 C 
ATOM      6  C   UNL d   1       7.652   4.074 -13.659  0.00  0.00     0.286 C 
ENDROOT
BRANCH   1   7
ATOM      7  C   UNL d   1       7.253   5.452 -11.738  0.00  0.00     0.337 C 
BRANCH   7   8
ATOM      8  C   UNL d   1       8.686   5.938 -11.427  0.00  0.00     0.272 C 
ATOM      9  O   UNL d   1       9.426   6.179 -12.380  0.00  0.00    -0.270 OA
ATOM     10  N   UNL d   1       9.071   6.066 -10.122  0.00  0.00    -0.298 N 
ATOM     11  C   UNL d   1       9.959   7.070  -9.685  0.00  0.00     0.059 A 
ATOM     12  C   UNL d   1       8.515   5.362  -8.979  0.00  0.00     0.114 A 
ATOM     13  C   UNL d   1      10.085   7.011  -8.293  0.00  0.00     0.006 A 
ATOM     14  C   UNL d   1      10.602   8.091 -10.410  0.00  0.00     0.017 A 
ATOM     15  C   UNL d   1       9.238   5.915  -7.729  0.00  0.00     0.053 A 
ATOM     16  C   UNL d   1      10.924   7.881  -7.592  0.00  0.00     0.055 A 
ATOM     17 CL   UNL d   1      11.072   7.774  -5.885  0.00  0.00    -0.083 Cl
ATOM     18  C   UNL d   1      11.626   8.852  -8.320  0.00  0.00     0.011 A 
ATOM     19  C   UNL d   1      11.451   8.970  -9.722  0.00  0.00     0.002 A 
ENDBRANCH   7   8
ENDBRANCH   1   7
BRANCH   4  20
ATOM     20  C   UNL d   1       6.128   0.814 -14.882  0.00  0.00     0.277 C 
BRANCH  20  21
ATOM     21  C   UNL d   1       6.693   0.681 -16.297  0.00  0.00     0.011 A 
ATOM     22  C   UNL d   1       8.083   0.791 -16.522  0.00  0.00    -0.002 A 
ATOM     23  C   UNL d   1       8.596   0.767 -17.828  0.00  0.00     0.011 A 
ATOM     24  C   UNL d   1       7.743   0.526 -18.922  0.00  0.00     0.058 A 
ATOM     25  C   UNL d   1       6.364   0.343 -18.708  0.00  0.00     0.011 A 
ATOM     26 CL   UNL d   1       8.402   0.453 -20.525  0.00  0.00    -0.082 Cl
ATOM     27  C   UNL d   1       5.842   0.427 -17.398  0.00  0.00    -0.002 A 
ENDBRANCH  20  21
ENDBRANCH   4  20
TORSDOF 4
