REMARK  1 active torsions:
REMARK  status: ('A' for Active; 'I' for Inactive)
REMARK    1  A    between atoms: N_5  and  C_6 
ROOT
ATOM      1  C   UNL d   1       9.511   4.832 -13.299  0.00  0.00     0.142 C 
ATOM      2  N   UNL d   1      10.613   5.184 -13.883  0.00  0.00    -0.227 NA
ATOM      3  C   UNL d   1      11.173   4.597 -15.025  0.00  0.00     0.103 A 
ATOM      4  C   UNL d   1      11.921   5.464 -15.848  0.00  0.00     0.048 A 
ATOM      5  C   UNL d   1      12.626   4.977 -16.965  0.00  0.00     0.133 A 
ATOM      6  O   UNL d   1      13.339   5.830 -17.755  0.00  0.00    -0.190 OA
ATOM      7  C   UNL d   1      12.603   3.603 -17.262  0.00  0.00     0.029 A 
ATOM      8  C   UNL d   1      11.869   2.723 -16.446  0.00  0.00     0.023 A 
ATOM      9  C   UNL d   1      11.152   3.210 -15.336  0.00  0.00     0.099 A 
ATOM     10  N   UNL d   1      10.406   2.292 -14.604  0.00  0.00    -0.244 NA
ATOM     11  C   UNL d   1       9.058   2.512 -14.335  0.00  0.00     0.084 A 
ATOM     12  C   UNL d   1       8.149   1.476 -14.640  0.00  0.00     0.019 A 
ATOM     13  C   UNL d   1       6.767   1.663 -14.449  0.00  0.00     0.002 A 
ATOM     14  C   UNL d   1       6.291   2.890 -13.953  0.00  0.00     0.000 A 
ATOM     15  C   UNL d   1       7.196   3.918 -13.639  0.00  0.00     0.004 A 
ATOM     16  C   UNL d   1       8.591   3.740 -13.797  0.00  0.00     0.051 A 
ENDROOT
BRANCH   1  17
ATOM     17  N   UNL d   1       9.115   5.438 -12.098  0.00  0.00    -0.330 N 
ATOM     18  C   UNL d   1       9.289   6.852 -11.787  0.00  0.00     0.138 C 
ATOM     19  C   UNL d   1      10.035   7.041 -10.450  0.00  0.00     0.274 C 
ATOM     20  N   UNL d   1       9.332   6.345  -9.371  0.00  0.00     0.143 N 
ATOM     21  C   UNL d   1      10.003   6.558  -8.107  0.00  0.00     0.286 C 
ATOM     22  C   UNL d   1       9.256   4.918  -9.675  0.00  0.00     0.274 C 
ATOM     23  C   UNL d   1       8.495   4.718 -10.992  0.00  0.00     0.138 C 
ENDBRANCH   1  17
TORSDOF 1
