REMARK  4 active torsions:
REMARK  status: ('A' for Active; 'I' for Inactive)
REMARK    1  A    between atoms: C_5  and  N_6 
REMARK    2  A    between atoms: N_9  and  C_10 
REMARK    3  A    between atoms: C_10  and  C_11 
REMARK    4  A    between atoms: C_13  and  C_14 
ROOT
ATOM      1  N   UNL d   1       9.573   7.176  -9.492  0.00  0.00    -0.344 N 
ATOM      2  C   UNL d   1       8.661   6.074  -9.184  0.00  0.00     0.137 C 
ATOM      3  C   UNL d   1       8.884   4.967 -10.212  0.00  0.00     0.274 C 
ATOM      4  N   UNL d   1       8.686   5.500 -11.579  0.00  0.00     0.141 N 
ATOM      5  C   UNL d   1       9.670   6.562 -11.806  0.00  0.00     0.274 C 
ATOM      6  C   UNL d   1       9.454   7.745 -10.851  0.00  0.00     0.137 C 
ENDROOT
BRANCH   4   7
ATOM      7  C   UNL d   1       9.030   4.441 -12.519  0.00  0.00     0.251 C 
BRANCH   7   8
ATOM      8  C   UNL d   1       7.815   3.605 -12.845  0.00  0.00     0.038 A 
ATOM      9  C   UNL d   1       7.791   2.685 -14.069  0.00  0.00     0.024 A 
ATOM     10  C   UNL d   1       7.003   3.968 -14.034  0.00  0.00     0.007 A 
BRANCH   9  11
ATOM     11  C   UNL d   1       8.963   2.550 -15.007  0.00  0.00    -0.022 A 
ATOM     12  C   UNL d   1       8.795   2.559 -16.415  0.00  0.00    -0.004 A 
ATOM     13  C   UNL d   1       9.917   2.497 -17.271  0.00  0.00    -0.000 A 
ATOM     14  C   UNL d   1      11.217   2.444 -16.730  0.00  0.00    -0.000 A 
ATOM     15  C   UNL d   1      11.376   2.412 -15.336  0.00  0.00    -0.000 A 
ATOM     16  C   UNL d   1      10.266   2.408 -14.486  0.00  0.00    -0.004 A 
ENDBRANCH   9  11
ENDBRANCH   7   8
ENDBRANCH   4   7
BRANCH   1  17
ATOM     17  C   UNL d   1      10.296   7.831  -8.482  0.00  0.00     0.052 A 
ATOM     18  C   UNL d   1       9.694   8.122  -7.231  0.00  0.00     0.016 A 
ATOM     19  C   UNL d   1      10.452   8.744  -6.212  0.00  0.00    -0.003 A 
ATOM     20  C   UNL d   1      11.804   9.068  -6.439  0.00  0.00    -0.022 A 
ATOM     21  C   UNL d   1      12.649   9.697  -5.363  0.00  0.00     0.031 C 
ATOM     22  C   UNL d   1      12.380   8.790  -7.685  0.00  0.00    -0.007 A 
ATOM     23  C   UNL d   1      11.646   8.183  -8.722  0.00  0.00    -0.007 A 
ATOM     24  C   UNL d   1      12.361   7.890 -10.033  0.00  0.00     0.033 C 
ENDBRANCH   1  17
TORSDOF 4
