REMARK  2 active torsions:
REMARK  status: ('A' for Active; 'I' for Inactive)
REMARK    1  A    between atoms: C_10  and  C_11 
REMARK    2  A    between atoms: C_11  and  N_12 
ROOT
ATOM      1  C   UNL d   1       9.825   6.454 -10.332  0.00  0.00     0.031 C 
ATOM      2  C   UNL d   1       8.858   5.770 -11.271  0.00  0.00    -0.021 A 
ATOM      3  C   UNL d   1       7.541   5.592 -10.863  0.00  0.00    -0.004 A 
ATOM      4  C   UNL d   1       6.588   4.966 -11.679  0.00  0.00    -0.003 A 
ATOM      5  C   UNL d   1       6.969   4.491 -12.940  0.00  0.00    -0.005 A 
ATOM      6  C   UNL d   1       8.311   4.631 -13.368  0.00  0.00     0.058 A 
ATOM      7  C   UNL d   1       9.243   5.291 -12.530  0.00  0.00     0.009 A 
ATOM      8  N   UNL d   1       8.664   4.219 -14.651  0.00  0.00    -0.142 NA
ATOM      9  O   UNL d   1       9.942   4.684 -15.017  0.00  0.00    -0.279 OA
ATOM     10  C   UNL d   1      10.707   3.606 -15.511  0.00  0.00     0.173 C 
ATOM     11  C   UNL d   1      10.012   2.367 -14.979  0.00  0.00     0.057 C 
ATOM     12  C   UNL d   1       8.568   2.827 -15.072  0.00  0.00     0.113 C 
ATOM     13  C   UNL d   1       7.542   1.883 -14.443  0.00  0.00    -0.009 A 
ATOM     14  C   UNL d   1       7.809   0.490 -14.441  0.00  0.00    -0.003 A 
ATOM     15  C   UNL d   1       6.877  -0.413 -13.896  0.00  0.00    -0.000 A 
ATOM     16  C   UNL d   1       5.687   0.071 -13.341  0.00  0.00    -0.000 A 
ATOM     17  C   UNL d   1       5.426   1.438 -13.294  0.00  0.00    -0.004 A 
ATOM     18  C   UNL d   1       6.315   2.342 -13.880  0.00  0.00    -0.020 A 
ATOM     19  C   UNL d   1       5.946   3.793 -13.795  0.00  0.00     0.053 C 
ENDROOT
BRANCH  10  20
ATOM     20  C   UNL d   1      12.163   3.786 -15.045  0.00  0.00     0.282 C 
BRANCH  20  21
ATOM     21  N   UNL d   1      12.926   4.788 -15.808  0.00  0.00     0.144 N 
ATOM     22  C   UNL d   1      13.249   4.314 -17.146  0.00  0.00     0.286 C 
ATOM     23  C   UNL d   1      12.292   6.103 -15.875  0.00  0.00     0.286 C 
ENDBRANCH  20  21
ENDBRANCH  10  20
TORSDOF 2
