REMARK  7 active torsions:
REMARK  status: ('A' for Active; 'I' for Inactive)
REMARK    1  A    between atoms: C_2  and  C_3 
REMARK       I    between atoms: C_2  and  N_12 
REMARK    2  A    between atoms: N_15  and  C_16 
REMARK    3  A    between atoms: C_16  and  C_17 
REMARK    4  A    between atoms: C_17  and  O_18 
REMARK    5  A    between atoms: O_18  and  C_19 
REMARK    6  A    between atoms: C_22  and  O_23 
REMARK    7  A    between atoms: O_23  and  C_24 
ROOT
ATOM      1  O   UNL d   1      11.994   8.273  -9.959  0.00  0.00    -0.266 OA
ATOM      2  C   UNL d   1      11.133   7.678  -9.288  0.00  0.00     0.275 C 
ATOM      3  N   UNL d   1      10.049   7.096  -9.833  0.00  0.00    -0.311 N 
ATOM      4  C   UNL d   1       9.106   6.220  -9.119  0.00  0.00     0.140 C 
ATOM      5  C   UNL d   1       8.787   4.991  -9.998  0.00  0.00     0.274 C 
ATOM      6  N   UNL d   1       8.270   5.399 -11.306  0.00  0.00     0.144 N 
ATOM      7  C   UNL d   1       9.277   6.201 -11.998  0.00  0.00     0.274 C 
ATOM      8  C   UNL d   1       9.580   7.453 -11.171  0.00  0.00     0.140 C 
ENDROOT
BRANCH   6   9
ATOM      9  C   UNL d   1       7.905   4.199 -12.058  0.00  0.00     0.283 C 
BRANCH   9  10
ATOM     10  C   UNL d   1       7.149   4.524 -13.361  0.00  0.00     0.184 C 
BRANCH  10  11
ATOM     11  O   UNL d   1       6.632   3.319 -13.927  0.00  0.00    -0.329 OA
BRANCH  11  12
ATOM     12  C   UNL d   1       7.462   2.488 -14.654  0.00  0.00     0.094 A 
ATOM     13  C   UNL d   1       8.798   2.803 -15.015  0.00  0.00     0.026 A 
ATOM     14  C   UNL d   1       9.555   1.917 -15.803  0.00  0.00     0.026 A 
ATOM     15  C   UNL d   1       9.014   0.680 -16.228  0.00  0.00     0.102 A 
ATOM     16  C   UNL d   1       7.683   0.369 -15.869  0.00  0.00     0.026 A 
ATOM     17  C   UNL d   1       6.918   1.263 -15.093  0.00  0.00     0.026 A 
BRANCH  15  18
ATOM     18  O   UNL d   1       9.728  -0.267 -16.932  0.00  0.00    -0.253 OA
BRANCH  18  19
ATOM     19  C   UNL d   1      10.734   0.098 -17.776  0.00  0.00     0.530 C 
ATOM     20  F   UNL d   1      11.165  -0.989 -18.458  0.00  0.00    -0.144 F 
ATOM     21  F   UNL d   1      10.313   0.997 -18.698  0.00  0.00    -0.144 F 
ATOM     22  F   UNL d   1      11.805   0.607 -17.114  0.00  0.00    -0.144 F 
ENDBRANCH  18  19
ENDBRANCH  15  18
ENDBRANCH  11  12
ENDBRANCH  10  11
ENDBRANCH   9  10
ENDBRANCH   6   9
BRANCH   2  23
ATOM     23  C   UNL d   1      11.254   7.741  -7.828  0.00  0.00     0.137 A 
ATOM     24  N   UNL d   1      11.297   9.008  -7.299  0.00  0.00    -0.241 NA
ATOM     25  C   UNL d   1      11.405   8.963  -5.928  0.00  0.00     0.082 A 
ATOM     26  C   UNL d   1      11.452   7.579  -5.597  0.00  0.00     0.019 A 
ATOM     27  C   UNL d   1      11.462   9.967  -4.950  0.00  0.00     0.019 A 
ATOM     28  C   UNL d   1      11.373   6.823  -6.818  0.00  0.00     0.025 A 
ATOM     29  C   UNL d   1      11.600   7.236  -4.236  0.00  0.00     0.002 A 
ATOM     30  C   UNL d   1      11.696   8.233  -3.248  0.00  0.00     0.000 A 
ATOM     31  C   UNL d   1      11.616   9.592  -3.602  0.00  0.00     0.002 A 
ENDBRANCH   2  23
TORSDOF 7
