REMARK  3 active torsions:
REMARK  status: ('A' for Active; 'I' for Inactive)
REMARK    1  A    between atoms: C_4  and  N_5 
REMARK    2  A    between atoms: N_8  and  C_9 
REMARK    3  A    between atoms: C_9  and  C_10 
ROOT
ATOM      1  N   UNL d   1      10.867   8.382  -5.503  0.00  0.00    -0.330 N 
ATOM      2  C   UNL d   1      11.165   9.509  -6.373  0.00  0.00     0.138 C 
ATOM      3  C   UNL d   1      11.559   8.979  -7.768  0.00  0.00     0.275 C 
ATOM      4  N   UNL d   1      10.529   8.089  -8.312  0.00  0.00     0.149 N 
ATOM      5  C   UNL d   1      10.418   6.945  -7.396  0.00  0.00     0.275 C 
ATOM      6  C   UNL d   1       9.944   7.400  -6.035  0.00  0.00     0.138 C 
ENDROOT
BRANCH   4   7
ATOM      7  C   UNL d   1      10.924   7.672  -9.659  0.00  0.00     0.315 C 
BRANCH   7   8
ATOM      8  C   UNL d   1       9.901   6.848 -10.394  0.00  0.00     0.173 A 
ATOM      9  N   UNL d   1       9.596   7.097 -11.676  0.00  0.00    -0.227 NA
ATOM     10  C   UNL d   1       8.664   6.142 -12.045  0.00  0.00     0.100 A 
ATOM     11  C   UNL d   1       8.446   5.397 -10.884  0.00  0.00     0.100 A 
ATOM     12  C   UNL d   1       8.009   5.823 -13.241  0.00  0.00     0.021 A 
ATOM     13  N   UNL d   1       9.280   5.799  -9.865  0.00  0.00    -0.227 NA
ATOM     14  C   UNL d   1       7.480   4.383 -10.918  0.00  0.00     0.021 A 
ATOM     15  C   UNL d   1       6.755   4.077 -12.084  0.00  0.00     0.002 A 
ATOM     16  C   UNL d   1       7.042   4.789 -13.261  0.00  0.00     0.002 A 
ENDBRANCH   7   8
ENDBRANCH   4   7
BRANCH   1  17
ATOM     17  C   UNL d   1      11.468   8.212  -4.273  0.00  0.00     0.140 A 
ATOM     18  C   UNL d   1      11.867   6.921  -3.816  0.00  0.00     0.037 A 
ATOM     19  C   UNL d   1      12.471   6.808  -2.559  0.00  0.00     0.005 A 
ATOM     20  C   UNL d   1      12.639   7.966  -1.788  0.00  0.00     0.021 A 
ATOM     21  C   UNL d   1      12.207   9.192  -2.317  0.00  0.00     0.101 A 
ATOM     22  N   UNL d   1      11.650   9.325  -3.525  0.00  0.00    -0.227 NA
ENDBRANCH   1  17
TORSDOF 3
