REMARK  1 active torsions:
REMARK  status: ('A' for Active; 'I' for Inactive)
REMARK    1  A    between atoms: C_11  and  C_12 
ROOT
ATOM      1  C   UNL d   1       9.342  -0.981 -20.187  0.00  0.00     0.285 C 
ATOM      2  N   UNL d   1      10.005   0.039 -19.396  0.00  0.00     0.139 N 
ATOM      3  C   UNL d   1       8.998   0.866 -18.734  0.00  0.00     0.253 C 
ATOM      4  C   UNL d   1       9.658   1.997 -17.927  0.00  0.00     0.064 C 
ATOM      5  C   UNL d   1      10.624   1.454 -16.858  0.00  0.00     0.110 C 
ATOM      6  C   UNL d   1      11.584   0.471 -17.563  0.00  0.00     0.064 C 
ATOM      7  C   UNL d   1      10.854  -0.603 -18.396  0.00  0.00     0.253 C 
ATOM      8  C   UNL d   1      11.480   2.547 -16.215  0.00  0.00     0.097 C 
ATOM      9  C   UNL d   1      10.625   3.472 -15.373  0.00  0.00     0.177 C 
ATOM     10  O   UNL d   1      10.877   4.677 -15.360  0.00  0.00    -0.291 OA
ATOM     11  C   UNL d   1       9.541   2.818 -14.600  0.00  0.00     0.059 C 
ATOM     12  C   UNL d   1       9.264   1.536 -14.897  0.00  0.00     0.119 C 
ATOM     13  O   UNL d   1       9.875   0.778 -15.863  0.00  0.00    -0.333 OA
ENDROOT
BRANCH  11  14
ATOM     14  C   UNL d   1       8.749   3.609 -13.627  0.00  0.00     0.005 A 
ATOM     15  C   UNL d   1       7.332   3.616 -13.636  0.00  0.00     0.000 A 
ATOM     16  C   UNL d   1       6.634   4.408 -12.699  0.00  0.00     0.000 A 
ATOM     17  C   UNL d   1       7.339   5.191 -11.761  0.00  0.00     0.000 A 
ATOM     18  C   UNL d   1       8.743   5.180 -11.745  0.00  0.00     0.000 A 
ATOM     19  C   UNL d   1       9.443   4.385 -12.672  0.00  0.00     0.000 A 
ENDBRANCH  11  14
TORSDOF 1
