REMARK  9 active torsions:
REMARK  status: ('A' for Active; 'I' for Inactive)
REMARK    1  A    between atoms: C_2  and  N_3 
REMARK       I    between atoms: N_3  and  C_4 
REMARK    2  A    between atoms: C_4  and  C_6 
REMARK    3  A    between atoms: C_10  and  O_11 
REMARK    4  A    between atoms: O_11  and  C_12 
REMARK    5  A    between atoms: C_12  and  C_13 
REMARK    6  A    between atoms: C_13  and  C_14 
REMARK    7  A    between atoms: C_14  and  C_15 
REMARK    8  A    between atoms: C_15  and  N_16 
REMARK    9  A    between atoms: C_19  and  C_20 
ROOT
ATOM      1  N   UNL d   1       9.107   6.474  -9.904  0.00  0.00     0.137 N 
ATOM      2  C   UNL d   1      10.559   6.567  -9.849  0.00  0.00     0.251 C 
ATOM      3  C   UNL d   1      11.017   7.554  -8.778  0.00  0.00     0.041 C 
ATOM      4  C   UNL d   1      10.458   7.171  -7.403  0.00  0.00     0.047 C 
ATOM      5  C   UNL d   1       8.939   6.961  -7.488  0.00  0.00     0.041 C 
ATOM      6  C   UNL d   1       8.579   5.989  -8.626  0.00  0.00     0.251 C 
ENDROOT
BRANCH   1   7
ATOM      7  C   UNL d   1       8.666   5.613 -11.001  0.00  0.00     0.250 C 
BRANCH   7   8
ATOM      8  C   UNL d   1       7.270   6.052 -11.524  0.00  0.00     0.038 C 
BRANCH   8   9
ATOM      9  C   UNL d   1       6.762   5.117 -12.627  0.00  0.00     0.035 C 
BRANCH   9  10
ATOM     10  C   UNL d   1       6.250   3.761 -12.049  0.00  0.00     0.151 C 
BRANCH  10  11
ATOM     11  O   UNL d   1       5.809   2.844 -13.048  0.00  0.00    -0.315 OA
BRANCH  11  12
ATOM     12  C   UNL d   1       6.735   2.380 -13.965  0.00  0.00     0.178 A 
ATOM     13  N   UNL d   1       7.943   2.944 -14.041  0.00  0.00    -0.221 NA
ATOM     14  C   UNL d   1       8.760   2.561 -14.997  0.00  0.00     0.101 A 
ATOM     15  C   UNL d   1       8.448   1.591 -15.967  0.00  0.00     0.026 A 
ATOM     16  C   UNL d   1       7.197   0.957 -15.897  0.00  0.00     0.063 A 
ATOM     17  C   UNL d   1       6.324   1.369 -14.854  0.00  0.00     0.049 A 
BRANCH  16  18
ATOM     18  C   UNL d   1       6.797  -0.095 -16.889  0.00  0.00     0.275 C 
ATOM     19  N   UNL d   1       5.726  -0.816 -16.556  0.00  0.00    -0.234 NA
ATOM     20  O   UNL d   1       7.452  -0.269 -17.919  0.00  0.00    -0.266 OA
BRANCH  19  21
ATOM     21  C   UNL d   1       5.183  -1.911 -17.355  0.00  0.00     0.129 C 
ATOM     22  C   UNL d   1       4.165  -1.367 -18.358  0.00  0.00     0.029 C 
ENDBRANCH  19  21
ENDBRANCH  16  18
ENDBRANCH  11  12
ENDBRANCH  10  11
ENDBRANCH   9  10
ENDBRANCH   8   9
ENDBRANCH   7   8
ENDBRANCH   1   7
BRANCH   4  23
ATOM     23  C   UNL d   1      10.825   8.212  -6.369  0.00  0.00     0.087 A 
ATOM     24  C   UNL d   1      11.372   8.082  -5.076  0.00  0.00     0.041 A 
ATOM     25  C   UNL d   1      11.487   9.349  -4.503  0.00  0.00     0.129 A 
ATOM     26  C   UNL d   1      11.762   6.947  -4.337  0.00  0.00     0.006 A 
ATOM     27  O   UNL d   1      11.014  10.234  -5.451  0.00  0.00    -0.211 OA
ATOM     28  C   UNL d   1      11.988   9.559  -3.218  0.00  0.00     0.057 A 
ATOM     29  N   UNL d   1      10.606   9.510  -6.601  0.00  0.00    -0.131 NA
ATOM     30  C   UNL d   1      12.396   8.429  -2.482  0.00  0.00     0.142 A 
ATOM     31  F   UNL d   1      12.922   8.590  -1.249  0.00  0.00    -0.204 F 
ATOM     32  C   UNL d   1      12.275   7.132  -3.034  0.00  0.00     0.030 A 
ENDBRANCH   4  23
TORSDOF 9
