REMARK  6 active torsions:
REMARK  status: ('A' for Active; 'I' for Inactive)
REMARK       I    between atoms: C_2  and  N_3 
REMARK    1  A    between atoms: C_2  and  C_28 
REMARK    2  A    between atoms: N_3  and  C_4 
REMARK    3  A    between atoms: C_7  and  C_8 
REMARK    4  A    between atoms: C_8  and  C_9 
REMARK    5  A    between atoms: C_9  and  N_10 
REMARK    6  A    between atoms: C_13  and  C_14 
ROOT
ATOM      1  C   UNL d   1       9.566   3.444 -13.604  0.00  0.00     0.250 C 
ENDROOT
BRANCH   1   2
ATOM      2  C   UNL d   1       8.893   4.792 -13.302  0.00  0.00     0.035 C 
BRANCH   2   3
ATOM      3  C   UNL d   1       9.451   5.498 -12.057  0.00  0.00     0.002 C 
ATOM      4  C   UNL d   1       8.861   6.914 -11.922  0.00  0.00     0.002 C 
ATOM      5  C   UNL d   1       9.470   7.646 -10.721  0.00  0.00     0.024 C 
ATOM      6  C   UNL d   1       9.288   6.853  -9.403  0.00  0.00     0.106 C 
ATOM      7  C   UNL d   1       9.778   5.421  -9.520  0.00  0.00     0.024 C 
ATOM      8  C   UNL d   1       9.225   4.705 -10.756  0.00  0.00     0.002 C 
BRANCH   6   9
ATOM      9  N   UNL d   1       9.893   7.516  -8.260  0.00  0.00    -0.240 NA
ATOM     10  C   UNL d   1      11.175   7.877  -8.119  0.00  0.00     0.251 C 
ATOM     11  O   UNL d   1      12.030   7.795  -8.995  0.00  0.00    -0.271 OA
BRANCH  10  12
ATOM     12  C   UNL d   1      11.598   8.372  -6.754  0.00  0.00     0.086 C 
ATOM     13  C   UNL d   1      10.782   9.580  -6.324  0.00  0.00     0.042 C 
ATOM     14  C   UNL d   1      11.235  10.034  -4.939  0.00  0.00     0.143 C 
ATOM     15  O   UNL d   1      11.130   8.961  -4.009  0.00  0.00    -0.354 OA
ATOM     16  C   UNL d   1      11.915   7.817  -4.330  0.00  0.00     0.143 C 
ATOM     17  C   UNL d   1      11.500   7.263  -5.695  0.00  0.00     0.042 C 
ENDBRANCH  10  12
ENDBRANCH   6   9
ENDBRANCH   2   3
ENDBRANCH   1   2
BRANCH   1  18
ATOM     18  N   UNL d   1       8.889   2.746 -14.693  0.00  0.00     0.137 N 
ATOM     19  C   UNL d   1       9.283   3.296 -15.991  0.00  0.00     0.251 C 
ATOM     20  C   UNL d   1       8.506   2.595 -17.122  0.00  0.00     0.040 C 
ATOM     21  C   UNL d   1       8.740   1.081 -17.108  0.00  0.00     0.026 C 
ATOM     22  C   UNL d   1       8.475   0.537 -15.692  0.00  0.00     0.040 C 
ATOM     23  C   UNL d   1       9.247   1.329 -14.628  0.00  0.00     0.251 C 
BRANCH  21  24
ATOM     24  C   UNL d   1       7.901   0.371 -18.169  0.00  0.00    -0.020 A 
ATOM     25  C   UNL d   1       8.529  -0.224 -19.289  0.00  0.00     0.023 A 
ATOM     26  C   UNL d   1       7.686  -0.869 -20.233  0.00  0.00     0.127 A 
ATOM     27  C   UNL d   1       9.870  -0.376 -19.789  0.00  0.00     0.029 A 
ATOM     28  C   UNL d   1       6.288  -0.935 -20.096  0.00  0.00     0.163 A 
ATOM     29  O   UNL d   1       8.457  -1.387 -21.250  0.00  0.00    -0.303 OA
ATOM     30  C   UNL d   1       5.690  -0.331 -18.982  0.00  0.00     0.031 A 
ATOM     31  F   UNL d   1       5.531  -1.570 -21.029  0.00  0.00    -0.202 F 
ATOM     32  C   UNL d   1       6.492   0.325 -18.026  0.00  0.00    -0.002 A 
ATOM     33  C   UNL d   1       9.757  -1.067 -20.969  0.00  0.00     0.123 A 
ENDBRANCH  21  24
ENDBRANCH   1  18
TORSDOF 6
