REMARK  6 active torsions:
REMARK  status: ('A' for Active; 'I' for Inactive)
REMARK    1  A    between atoms: C_5  and  N_6 
REMARK    2  A    between atoms: N_9  and  C_10 
REMARK    3  A    between atoms: C_10  and  C_11 
REMARK    4  A    between atoms: C_11  and  C_12 
REMARK    5  A    between atoms: C_15  and  N_16 
REMARK       I    between atoms: N_16  and  C_17 
REMARK    6  A    between atoms: C_17  and  C_19 
ROOT
ATOM      1  C   UNL d   1       9.429   5.581 -11.629  0.00  0.00     0.035 C 
ENDROOT
BRANCH   1   2
ATOM      2  C   UNL d   1       9.156   5.196 -10.169  0.00  0.00     0.250 C 
BRANCH   2   3
ATOM      3  N   UNL d   1       9.188   6.375  -9.299  0.00  0.00     0.141 N 
ATOM      4  C   UNL d   1      10.546   6.912  -9.129  0.00  0.00     0.274 C 
ATOM      5  C   UNL d   1      10.560   8.159  -8.230  0.00  0.00     0.137 C 
ATOM      6  N   UNL d   1       9.966   7.828  -6.955  0.00  0.00    -0.344 N 
ATOM      7  C   UNL d   1       8.674   7.173  -7.016  0.00  0.00     0.137 C 
ATOM      8  C   UNL d   1       8.721   5.968  -7.971  0.00  0.00     0.274 C 
BRANCH   6   9
ATOM      9  C   UNL d   1      10.653   8.051  -5.753  0.00  0.00     0.056 A 
ATOM     10  C   UNL d   1      10.778   9.361  -5.247  0.00  0.00     0.017 A 
ATOM     11  C   UNL d   1      11.431   9.588  -4.016  0.00  0.00    -0.003 A 
ATOM     12  C   UNL d   1      11.975   8.509  -3.286  0.00  0.00    -0.022 A 
ATOM     13  C   UNL d   1      12.644   8.755  -1.946  0.00  0.00     0.031 C 
ATOM     14  C   UNL d   1      11.867   7.203  -3.809  0.00  0.00    -0.003 A 
ATOM     15  C   UNL d   1      11.205   6.976  -5.031  0.00  0.00     0.017 A 
ENDBRANCH   6   9
ENDBRANCH   2   3
ENDBRANCH   1   2
BRANCH   1  16
ATOM     16  C   UNL d   1       9.539   4.372 -12.576  0.00  0.00     0.002 C 
ATOM     17  C   UNL d   1      10.577   4.621 -13.691  0.00  0.00     0.002 C 
ATOM     18  C   UNL d   1      10.653   3.447 -14.675  0.00  0.00     0.024 C 
ATOM     19  C   UNL d   1       9.270   3.135 -15.271  0.00  0.00     0.107 C 
ATOM     20  C   UNL d   1       8.244   2.865 -14.156  0.00  0.00     0.024 C 
ATOM     21  C   UNL d   1       8.165   4.033 -13.173  0.00  0.00     0.002 C 
BRANCH  19  22
ATOM     22  N   UNL d   1       9.374   1.998 -16.176  0.00  0.00    -0.236 NA
ATOM     23  C   UNL d   1       8.417   1.565 -17.011  0.00  0.00     0.281 C 
ATOM     24  O   UNL d   1       7.264   1.989 -17.014  0.00  0.00    -0.265 OA
BRANCH  23  25
ATOM     25  C   UNL d   1       8.831   0.536 -17.971  0.00  0.00     0.087 A 
ATOM     26  S   UNL d   1       7.563  -0.355 -18.778  0.00  0.00    -0.082 SA
ATOM     27  C   UNL d   1       8.735  -1.217 -19.728  0.00  0.00     0.036 A 
ATOM     28  C   UNL d   1      10.014  -0.816 -19.442  0.00  0.00     0.008 A 
ATOM     29  C   UNL d   1      10.071   0.184 -18.433  0.00  0.00     0.012 A 
ENDBRANCH  23  25
ENDBRANCH  19  22
ENDBRANCH   1  16
TORSDOF 6
