REMARK  1 active torsions:
REMARK  status: ('A' for Active; 'I' for Inactive)
REMARK    1  A    between atoms: N_6  and  C_7 
ROOT
ATOM      1  O   UNL d   1      12.668   8.790  -1.637  0.00  0.00    -0.263 OA
ATOM      2  C   UNL d   1      12.259   8.537  -2.765  0.00  0.00     0.312 A 
ATOM      3  N   UNL d   1      11.863   9.573  -3.607  0.00  0.00    -0.151 NA
ATOM      4  C   UNL d   1      11.392   9.420  -4.904  0.00  0.00     0.355 A 
ATOM      5  O   UNL d   1      11.081  10.413  -5.553  0.00  0.00    -0.244 OA
ATOM      6  N   UNL d   1      11.292   8.107  -5.389  0.00  0.00    -0.254 N 
ATOM      7  C   UNL d   1      11.641   7.034  -4.584  0.00  0.00     0.117 A 
ATOM      8  C   UNL d   1      12.119   7.202  -3.326  0.00  0.00     0.215 A 
ATOM      9  F   UNL d   1      12.501   6.143  -2.601  0.00  0.00    -0.198 F 
ENDROOT
BRANCH   6  10
ATOM     10  C   UNL d   1      10.808   7.848  -6.832  0.00  0.00     0.208 C 
ATOM     11  O   UNL d   1       9.618   8.507  -7.016  0.00  0.00    -0.336 OA
ATOM     12  C   UNL d   1       9.463   8.609  -8.430  0.00  0.00     0.145 C 
ATOM     13  C   UNL d   1      10.875   8.878  -8.967  0.00  0.00     0.037 C 
ATOM     14  C   UNL d   1      11.805   8.373  -7.872  0.00  0.00     0.057 C 
ENDBRANCH   6  10
TORSDOF 1
