REMARK  3 active torsions:
REMARK  status: ('A' for Active; 'I' for Inactive)
REMARK    1  A    between atoms: C_2  and  C_3 
REMARK       I    between atoms: C_2  and  N_24 
REMARK    2  A    between atoms: C_7  and  C_8 
REMARK    3  A    between atoms: C_8  and  N_9 
ROOT
ATOM      1  C   UNL d   1       6.874   0.413 -19.401  0.00  0.00     0.277 C 
ENDROOT
BRANCH   1   2
ATOM      2  C   UNL d   1       6.134  -0.404 -18.346  0.00  0.00     0.011 A 
ATOM      3  C   UNL d   1       5.783  -1.744 -18.608  0.00  0.00    -0.002 A 
ATOM      4  C   UNL d   1       5.142  -2.508 -17.613  0.00  0.00    -0.000 A 
ATOM      5  C   UNL d   1       4.891  -1.948 -16.342  0.00  0.00     0.005 A 
ATOM      6  C   UNL d   1       5.263  -0.618 -16.051  0.00  0.00     0.056 A 
ATOM      7  C   UNL d   1       5.806   0.164 -17.095  0.00  0.00     0.002 A 
BRANCH   6   8
ATOM      8  C   UNL d   1       4.979  -0.026 -14.692  0.00  0.00     0.257 C 
ATOM      9  O   UNL d   1       3.949  -0.367 -14.106  0.00  0.00    -0.267 OA
ATOM     10  N   UNL d   1       5.841   0.884 -14.154  0.00  0.00    -0.317 N 
ATOM     11  C   UNL d   1       5.414   1.764 -13.049  0.00  0.00     0.104 C 
ATOM     12  C   UNL d   1       7.281   0.976 -14.439  0.00  0.00     0.104 C 
ATOM     13  C   UNL d   1       5.775   3.254 -13.330  0.00  0.00     0.024 C 
ATOM     14  C   UNL d   1       7.249   3.426 -13.668  0.00  0.00     0.004 C 
ATOM     15  C   UNL d   1       7.664   2.434 -14.739  0.00  0.00     0.024 C 
ENDBRANCH   6   8
ENDBRANCH   1   2
BRANCH   1  16
ATOM     16  N   UNL d   1       7.673   1.530 -18.882  0.00  0.00     0.145 N 
ATOM     17  C   UNL d   1       8.782   1.038 -18.040  0.00  0.00     0.275 C 
ATOM     18  C   UNL d   1       9.613   2.209 -17.474  0.00  0.00     0.145 C 
ATOM     19  N   UNL d   1      10.140   2.971 -18.584  0.00  0.00    -0.342 N 
ATOM     20  C   UNL d   1      10.738   1.710 -16.546  0.00  0.00     0.173 C 
ATOM     21  C   UNL d   1       9.082   3.463 -19.480  0.00  0.00     0.137 C 
ATOM     22  C   UNL d   1      11.272   3.752 -18.291  0.00  0.00     0.079 A 
ATOM     23  C   UNL d   1       8.279   2.255 -20.001  0.00  0.00     0.275 C 
ATOM     24  C   UNL d   1      11.955   3.626 -17.058  0.00  0.00     0.110 A 
ATOM     25  C   UNL d   1      11.801   4.627 -19.268  0.00  0.00     0.019 A 
ATOM     26  C   UNL d   1      13.114   4.378 -16.793  0.00  0.00     0.026 A 
ATOM     27  O   UNL d   1      11.524   2.766 -16.095  0.00  0.00    -0.327 OA
ATOM     28  C   UNL d   1      13.642   5.225 -17.788  0.00  0.00     0.002 A 
ATOM     29  C   UNL d   1      12.977   5.347 -19.024  0.00  0.00     0.002 A 
ENDBRANCH   1  16
TORSDOF 3
