REMARK  12 active torsions:
REMARK  status: ('A' for Active; 'I' for Inactive)
REMARK    1  A    between atoms: O_2  and  C_3 
REMARK    2  A    between atoms: C_8  and  N_9 
REMARK    3  A    between atoms: N_12  and  C_13 
REMARK    4  A    between atoms: C_13  and  C_14 
REMARK    5  A    between atoms: N_16  and  C_17 
REMARK    6  A    between atoms: C_17  and  C_18 
REMARK    7  A    between atoms: C_18  and  O_19 
REMARK    8  A    between atoms: O_19  and  C_20 
REMARK    9  A    between atoms: C_20  and  C_21 
REMARK   10  A    between atoms: C_21  and  O_22 
REMARK   11  A    between atoms: O_22  and  C_23 
REMARK   12  A    between atoms: C_23  and  C_24 
ROOT
ATOM      1  C   UNL d   1      11.072   3.059 -14.584  0.00  0.00     0.299 C 
ENDROOT
BRANCH   1   2
ATOM      2  N   UNL d   1      10.167   2.229 -15.378  0.00  0.00     0.147 N 
ATOM      3  C   UNL d   1       9.893   0.992 -14.637  0.00  0.00     0.275 C 
ATOM      4  C   UNL d   1       8.975   0.076 -15.480  0.00  0.00     0.137 C 
ATOM      5  N   UNL d   1       7.734   0.748 -15.816  0.00  0.00    -0.343 N 
ATOM      6  C   UNL d   1       7.904   2.049 -16.424  0.00  0.00     0.137 C 
ATOM      7  C   UNL d   1       8.879   2.910 -15.583  0.00  0.00     0.275 C 
BRANCH   5   8
ATOM      8  C   UNL d   1       6.475   0.227 -15.456  0.00  0.00     0.079 A 
ATOM      9  C   UNL d   1       5.762   0.747 -14.347  0.00  0.00     0.110 A 
ATOM     10  C   UNL d   1       4.483   0.182 -14.045  0.00  0.00     0.026 A 
ATOM     11  C   UNL d   1       3.923  -0.817 -14.835  0.00  0.00     0.002 A 
ATOM     12  C   UNL d   1       4.628  -1.328 -15.928  0.00  0.00     0.002 A 
ATOM     13  C   UNL d   1       5.909  -0.806 -16.236  0.00  0.00     0.019 A 
BRANCH   9  14
ATOM     14  O   UNL d   1       6.306   1.795 -13.655  0.00  0.00    -0.327 OA
ATOM     15  C   UNL d   1       5.583   2.354 -12.565  0.00  0.00     0.181 C 
ENDBRANCH   9  14
ENDBRANCH   5   8
ENDBRANCH   1   2
BRANCH   1  16
ATOM     16  C   UNL d   1      11.752   4.258 -15.188  0.00  0.00     0.134 A 
ATOM     17  N   UNL d   1      11.382   5.562 -14.883  0.00  0.00    -0.131 NA
ATOM     18  N   UNL d   1      12.088   6.390 -15.598  0.00  0.00    -0.064 NA
ATOM     19  N   UNL d   1      12.949   5.667 -16.346  0.00  0.00    -0.228 N 
ATOM     20  C   UNL d   1      12.755   4.312 -16.106  0.00  0.00     0.115 A 
BRANCH  19  21
ATOM     21  C   UNL d   1      13.759   6.341 -17.340  0.00  0.00     0.161 C 
BRANCH  21  22
ATOM     22  C   UNL d   1      12.925   7.076 -18.409  0.00  0.00     0.169 C 
BRANCH  22  23
ATOM     23  O   UNL d   1      11.992   6.246 -19.093  0.00  0.00    -0.349 OA
BRANCH  23  24
ATOM     24  C   UNL d   1      10.862   5.877 -18.327  0.00  0.00     0.174 C 
BRANCH  24  25
ATOM     25  C   UNL d   1       9.848   5.058 -19.109  0.00  0.00     0.174 C 
BRANCH  25  26
ATOM     26  O   UNL d   1       9.007   5.786 -19.985  0.00  0.00    -0.349 OA
BRANCH  26  27
ATOM     27  C   UNL d   1       8.314   6.807 -19.287  0.00  0.00     0.180 C 
BRANCH  27  28
ATOM     28  C   UNL d   1       7.349   7.461 -20.247  0.00  0.00     0.225 C 
ATOM     29  F   UNL d   1       8.047   8.151 -21.150  0.00  0.00    -0.232 F 
ENDBRANCH  27  28
ENDBRANCH  26  27
ENDBRANCH  25  26
ENDBRANCH  24  25
ENDBRANCH  23  24
ENDBRANCH  22  23
ENDBRANCH  21  22
ENDBRANCH  19  21
ENDBRANCH   1  16
TORSDOF 12
