REMARK  7 active torsions:
REMARK  status: ('A' for Active; 'I' for Inactive)
REMARK    1  A    between atoms: N_3  and  C_4 
REMARK    2  A    between atoms: C_4  and  C_5 
REMARK    3  A    between atoms: C_5  and  N_6 
REMARK    4  A    between atoms: C_9  and  C_10 
REMARK    5  A    between atoms: N_18  and  C_19 
REMARK    6  A    between atoms: C_23  and  O_24 
REMARK    7  A    between atoms: O_24  and  C_25 
ROOT
ATOM      1  O   UNL d   1      10.650   4.831 -13.174  0.00  0.00    -0.247 OA
ATOM      2  C   UNL d   1       9.435   4.712 -12.994  0.00  0.00     0.328 A 
ATOM      3  N   UNL d   1       8.728   5.391 -12.079  0.00  0.00    -0.298 N 
ATOM      4  C   UNL d   1       7.313   5.097 -12.136  0.00  0.00     0.131 A 
ATOM      5  C   UNL d   1       7.221   4.073 -13.256  0.00  0.00     0.135 A 
ATOM      6  N   UNL d   1       8.601   3.927 -13.705  0.00  0.00    -0.280 N 
ENDROOT
BRANCH   3   7
ATOM      7  C   UNL d   1       9.282   6.402 -11.194  0.00  0.00     0.141 C 
BRANCH   7   8
ATOM      8  C   UNL d   1       9.454   5.832  -9.785  0.00  0.00     0.274 C 
BRANCH   8   9
ATOM      9  N   UNL d   1      10.172   6.763  -8.920  0.00  0.00     0.139 N 
ATOM     10  C   UNL d   1       9.343   7.937  -8.650  0.00  0.00     0.251 C 
ATOM     11  C   UNL d   1      10.104   8.948  -7.796  0.00  0.00     0.044 C 
ATOM     12  C   UNL d   1      10.537   8.334  -6.457  0.00  0.00     0.099 C 
ATOM     13  C   UNL d   1      11.287   7.021  -6.751  0.00  0.00     0.044 C 
ATOM     14  C   UNL d   1      10.459   6.092  -7.656  0.00  0.00     0.251 C 
BRANCH  12  15
ATOM     15  C   UNL d   1      11.373   9.317  -5.615  0.00  0.00     0.398 C 
ATOM     16  F   UNL d   1      12.445   9.696  -6.301  0.00  0.00    -0.170 F 
ATOM     17  F   UNL d   1      10.659  10.394  -5.308  0.00  0.00    -0.170 F 
ATOM     18  F   UNL d   1      11.776   8.755  -4.478  0.00  0.00    -0.170 F 
ENDBRANCH  12  15
ENDBRANCH   8   9
ENDBRANCH   7   8
ENDBRANCH   3   7
BRANCH   6  19
ATOM     19  C   UNL d   1       8.980   3.057 -14.760  0.00  0.00     0.066 A 
ATOM     20  C   UNL d   1       9.992   3.486 -15.651  0.00  0.00     0.042 A 
ATOM     21  C   UNL d   1      10.474   2.659 -16.701  0.00  0.00     0.103 A 
ATOM     22  C   UNL d   1       9.863   1.401 -16.872  0.00  0.00     0.025 A 
ATOM     23  C   UNL d   1       8.824   0.974 -16.018  0.00  0.00     0.004 A 
ATOM     24  C   UNL d   1       8.373   1.794 -14.962  0.00  0.00     0.018 A 
BRANCH  21  25
ATOM     25  O   UNL d   1      11.495   3.043 -17.561  0.00  0.00    -0.253 OA
BRANCH  25  26
ATOM     26  C   UNL d   1      12.118   4.256 -17.403  0.00  0.00     0.530 C 
ATOM     27  F   UNL d   1      13.085   4.426 -18.351  0.00  0.00    -0.144 F 
ATOM     28  F   UNL d   1      11.252   5.295 -17.548  0.00  0.00    -0.144 F 
ATOM     29  F   UNL d   1      12.738   4.359 -16.196  0.00  0.00    -0.144 F 
ENDBRANCH  25  26
ENDBRANCH  21  25
ENDBRANCH   6  19
TORSDOF 7
