REMARK  6 active torsions:
REMARK  status: ('A' for Active; 'I' for Inactive)
REMARK       I    between atoms: C_2  and  N_3 
REMARK    1  A    between atoms: C_2  and  C_27 
REMARK    2  A    between atoms: N_3  and  C_4 
REMARK    3  A    between atoms: C_7  and  C_8 
REMARK    4  A    between atoms: C_8  and  C_9 
REMARK    5  A    between atoms: C_9  and  N_10 
REMARK    6  A    between atoms: C_13  and  C_14 
ROOT
ATOM      1  C   UNL d   1       7.803   5.122 -11.395  0.00  0.00     0.250 C 
ENDROOT
BRANCH   1   2
ATOM      2  C   UNL d   1       9.026   6.048 -11.287  0.00  0.00     0.035 C 
BRANCH   2   3
ATOM      3  C   UNL d   1       9.222   6.641  -9.895  0.00  0.00     0.002 C 
ATOM      4  C   UNL d   1       9.747   5.636  -8.885  0.00  0.00     0.002 C 
ATOM      5  C   UNL d   1       9.937   6.328  -7.532  0.00  0.00     0.024 C 
ATOM      6  C   UNL d   1      10.892   7.535  -7.611  0.00  0.00     0.106 C 
ATOM      7  C   UNL d   1      10.385   8.552  -8.642  0.00  0.00     0.024 C 
ATOM      8  C   UNL d   1      10.163   7.878  -9.997  0.00  0.00     0.002 C 
BRANCH   6   9
ATOM      9  N   UNL d   1      11.010   8.174  -6.307  0.00  0.00    -0.238 NA
ATOM     10  C   UNL d   1      11.458   7.617  -5.183  0.00  0.00     0.279 C 
ATOM     11  O   UNL d   1      11.812   6.431  -5.106  0.00  0.00    -0.268 OA
BRANCH  10  12
ATOM     12  C   UNL d   1      11.588   8.535  -3.958  0.00  0.00     0.198 C 
ATOM     13  C   UNL d   1      13.052   8.772  -3.621  0.00  0.00     0.040 C 
ATOM     14  C   UNL d   1      12.709   8.581  -2.139  0.00  0.00     0.006 C 
ATOM     15  C   UNL d   1      11.530   7.758  -2.628  0.00  0.00     0.040 C 
ATOM     16  O   UNL d   1      10.825   9.721  -4.099  0.00  0.00    -0.216 OA
ENDBRANCH  10  12
ENDBRANCH   6   9
ENDBRANCH   2   3
ENDBRANCH   1   2
BRANCH   1  17
ATOM     17  N   UNL d   1       7.703   4.479 -12.703  0.00  0.00     0.137 N 
ATOM     18  C   UNL d   1       8.910   3.705 -12.993  0.00  0.00     0.251 C 
ATOM     19  C   UNL d   1       8.815   3.095 -14.380  0.00  0.00     0.040 C 
ATOM     20  C   UNL d   1       7.595   2.180 -14.556  0.00  0.00     0.026 C 
ATOM     21  C   UNL d   1       6.343   2.958 -14.089  0.00  0.00     0.040 C 
ATOM     22  C   UNL d   1       6.518   3.622 -12.717  0.00  0.00     0.251 C 
BRANCH  20  23
ATOM     23  C   UNL d   1       7.471   1.663 -16.008  0.00  0.00    -0.024 A 
ATOM     24  C   UNL d   1       6.542   0.651 -16.351  0.00  0.00    -0.001 A 
ATOM     25  C   UNL d   1       6.399   0.203 -17.661  0.00  0.00     0.090 A 
ATOM     26  C   UNL d   1       5.587  -0.102 -15.476  0.00  0.00     0.061 A 
ATOM     27  C   UNL d   1       7.181   0.730 -18.701  0.00  0.00     0.024 A 
ATOM     28  O   UNL d   1       5.443  -0.768 -17.789  0.00  0.00    -0.331 OA
ATOM     29  C   UNL d   1       8.133   1.723 -18.390  0.00  0.00     0.002 A 
ATOM     30  C   UNL d   1       8.278   2.179 -17.058  0.00  0.00    -0.004 A 
ATOM     31  C   UNL d   1       4.890  -1.032 -16.490  0.00  0.00     0.154 A 
ENDBRANCH  20  23
ENDBRANCH   1  17
TORSDOF 6
