REMARK  7 active torsions:
REMARK  status: ('A' for Active; 'I' for Inactive)
REMARK    1  A    between atoms: O_2  and  C_3 
REMARK    2  A    between atoms: C_3  and  C_4 
REMARK       I    between atoms: C_4  and  N_6 
REMARK    3  A    between atoms: N_6  and  C_7 
REMARK    4  A    between atoms: C_10  and  C_11 
REMARK    5  A    between atoms: C_11  and  C_12 
REMARK    6  A    between atoms: C_12  and  N_13 
REMARK    7  A    between atoms: C_16  and  C_17 
ROOT
ATOM      1  N   UNL d   1       9.154   4.189 -13.443  0.00  0.00     0.137 N 
ATOM      2  C   UNL d   1      10.439   3.514 -13.275  0.00  0.00     0.251 C 
ATOM      3  C   UNL d   1      10.549   2.323 -14.224  0.00  0.00     0.040 C 
ATOM      4  C   UNL d   1      10.411   2.786 -15.677  0.00  0.00     0.026 C 
ATOM      5  C   UNL d   1       9.142   3.644 -15.824  0.00  0.00     0.040 C 
ATOM      6  C   UNL d   1       9.122   4.770 -14.781  0.00  0.00     0.251 C 
ENDROOT
BRANCH   1   7
ATOM      7  C   UNL d   1       9.019   5.269 -12.473  0.00  0.00     0.250 C 
BRANCH   7   8
ATOM      8  C   UNL d   1       8.932   4.786 -11.009  0.00  0.00     0.035 C 
BRANCH   8   9
ATOM      9  C   UNL d   1       8.880   5.912  -9.970  0.00  0.00     0.002 C 
ATOM     10  C   UNL d   1       8.980   5.328  -8.544  0.00  0.00     0.002 C 
ATOM     11  C   UNL d   1       9.004   6.426  -7.473  0.00  0.00     0.024 C 
ATOM     12  C   UNL d   1      10.122   7.439  -7.747  0.00  0.00     0.106 C 
ATOM     13  C   UNL d   1      10.009   8.043  -9.149  0.00  0.00     0.024 C 
ATOM     14  C   UNL d   1       9.992   6.955 -10.212  0.00  0.00     0.002 C 
BRANCH  12  15
ATOM     15  N   UNL d   1      10.065   8.495  -6.750  0.00  0.00    -0.238 NA
ATOM     16  C   UNL d   1      11.104   9.256  -6.396  0.00  0.00     0.282 C 
ATOM     17  O   UNL d   1      12.190   9.214  -6.963  0.00  0.00    -0.268 OA
BRANCH  16  18
ATOM     18  C   UNL d   1      10.902  10.181  -5.189  0.00  0.00     0.232 C 
BRANCH  18  19
ATOM     19  O   UNL d   1      11.190   9.495  -3.970  0.00  0.00    -0.342 OA
ATOM     20  C   UNL d   1      12.540   9.111  -3.779  0.00  0.00     0.175 C 
ENDBRANCH  18  19
ENDBRANCH  16  18
ENDBRANCH  12  15
ENDBRANCH   8   9
ENDBRANCH   7   8
ENDBRANCH   1   7
BRANCH   4  21
ATOM     21  C   UNL d   1      10.397   1.599 -16.629  0.00  0.00    -0.024 A 
ATOM     22  C   UNL d   1      11.416   1.390 -17.577  0.00  0.00    -0.001 A 
ATOM     23  C   UNL d   1      11.406   0.303 -18.441  0.00  0.00     0.090 A 
ATOM     24  C   UNL d   1      12.631   2.213 -17.840  0.00  0.00     0.061 A 
ATOM     25  C   UNL d   1      10.364  -0.639 -18.405  0.00  0.00     0.024 A 
ATOM     26  O   UNL d   1      12.484   0.282 -19.283  0.00  0.00    -0.331 OA
ATOM     27  C   UNL d   1       9.326  -0.453 -17.463  0.00  0.00     0.002 A 
ATOM     28  C   UNL d   1       9.349   0.646 -16.579  0.00  0.00    -0.004 A 
ATOM     29  C   UNL d   1      13.262   1.466 -19.038  0.00  0.00     0.154 A 
ENDBRANCH   4  21
TORSDOF 7
