REMARK  8 active torsions:
REMARK  status: ('A' for Active; 'I' for Inactive)
REMARK    1  A    between atoms: C_7  and  N_8 
REMARK    2  A    between atoms: N_8  and  C_9 
REMARK    3  A    between atoms: C_9  and  C_10 
REMARK    4  A    between atoms: C_10  and  C_11 
REMARK    5  A    between atoms: C_11  and  C_12 
REMARK    6  A    between atoms: C_12  and  C_13 
REMARK    7  A    between atoms: C_13  and  N_14 
REMARK    8  A    between atoms: N_17  and  C_18 
ROOT
ATOM      1  C   UNL d   1       9.351   6.039 -11.161  0.00  0.00     0.035 C 
ENDROOT
BRANCH   1   2
ATOM      2  C   UNL d   1       9.716   5.760 -12.620  0.00  0.00     0.004 C 
BRANCH   2   3
ATOM      3  C   UNL d   1       8.996   4.533 -13.129  0.00  0.00     0.027 C 
BRANCH   3   4
ATOM      4  C   UNL d   1       9.423   4.026 -14.528  0.00  0.00     0.145 C 
BRANCH   4   5
ATOM      5  N   UNL d   1       8.861   2.737 -14.940  0.00  0.00    -0.085 NA
BRANCH   5   6
ATOM      6  C   UNL d   1       7.653   2.163 -14.568  0.00  0.00     0.776 A 
ATOM      7  N   UNL d   1       7.465   0.901 -14.962  0.00  0.00     0.136 NA
ATOM      8  C   UNL d   1       6.317   0.387 -14.464  0.00  0.00     0.799 A 
ATOM      9  N   UNL d   1       5.468   0.966 -13.614  0.00  0.00     0.138 NA
ATOM     10  N   UNL d   1       5.960  -0.838 -14.924  0.00  0.00     0.063 N 
ATOM     11  C   UNL d   1       5.811   2.211 -13.358  0.00  0.00     0.799 A 
ATOM     12  N   UNL d   1       5.062   2.902 -12.484  0.00  0.00     0.063 N 
ATOM     13  N   UNL d   1       6.846   2.910 -13.825  0.00  0.00     0.136 NA
ENDBRANCH   5   6
ENDBRANCH   4   5
ENDBRANCH   3   4
ENDBRANCH   2   3
ENDBRANCH   1   2
BRANCH   1  14
ATOM     14  C   UNL d   1      10.275   7.098 -10.550  0.00  0.00     0.250 C 
BRANCH  14  15
ATOM     15  N   UNL d   1       9.857   7.504  -9.216  0.00  0.00     0.141 N 
ATOM     16  C   UNL d   1      10.020   6.408  -8.254  0.00  0.00     0.274 C 
ATOM     17  C   UNL d   1       9.548   6.851  -6.866  0.00  0.00     0.137 C 
ATOM     18  N   UNL d   1      10.262   8.060  -6.459  0.00  0.00    -0.344 N 
ATOM     19  C   UNL d   1      10.194   9.146  -7.432  0.00  0.00     0.137 C 
ATOM     20  C   UNL d   1      10.664   8.655  -8.804  0.00  0.00     0.274 C 
BRANCH  18  21
ATOM     21  C   UNL d   1      10.961   8.178  -5.247  0.00  0.00     0.056 A 
ATOM     22  C   UNL d   1      11.122   9.447  -4.643  0.00  0.00     0.017 A 
ATOM     23  C   UNL d   1      11.789   9.571  -3.413  0.00  0.00     0.002 A 
ATOM     24  C   UNL d   1      12.311   8.449  -2.757  0.00  0.00     0.000 A 
ATOM     25  C   UNL d   1      12.149   7.180  -3.338  0.00  0.00     0.002 A 
ATOM     26  C   UNL d   1      11.476   7.045  -4.571  0.00  0.00     0.017 A 
ENDBRANCH  18  21
ENDBRANCH  14  15
ENDBRANCH   1  14
TORSDOF 8
