REMARK  7 active torsions:
REMARK  status: ('A' for Active; 'I' for Inactive)
REMARK    1  A    between atoms: C_4  and  C_5 
REMARK    2  A    between atoms: C_9  and  C_10 
REMARK       I    between atoms: C_10  and  N_12 
REMARK    3  A    between atoms: N_12  and  C_13 
REMARK    4  A    between atoms: C_16  and  C_17 
REMARK    5  A    between atoms: C_17  and  C_18 
REMARK    6  A    between atoms: C_18  and  N_19 
REMARK    7  A    between atoms: N_22  and  C_23 
ROOT
ATOM      1  C   UNL d   1       7.657   5.356 -11.200  0.00  0.00     0.107 C 
ATOM      2  C   UNL d   1       6.695   6.171 -12.125  0.00  0.00     0.024 C 
ATOM      3  C   UNL d   1       5.867   5.208 -12.986  0.00  0.00     0.002 C 
ATOM      4  C   UNL d   1       6.825   4.296 -13.792  0.00  0.00     0.002 C 
ATOM      5  C   UNL d   1       7.631   3.525 -12.832  0.00  0.00     0.002 C 
ATOM      6  C   UNL d   1       8.520   4.382 -11.977  0.00  0.00     0.024 C 
ENDROOT
BRANCH   4   7
ATOM      7  C   UNL d   1       6.003   3.276 -14.559  0.00  0.00     0.035 C 
BRANCH   7   8
ATOM      8  C   UNL d   1       6.880   2.176 -15.319  0.00  0.00     0.250 C 
BRANCH   8   9
ATOM      9  N   UNL d   1       6.130   1.180 -16.090  0.00  0.00     0.141 N 
ATOM     10  C   UNL d   1       6.155   1.435 -17.535  0.00  0.00     0.274 C 
ATOM     11  C   UNL d   1       5.234   0.491 -18.318  0.00  0.00     0.138 C 
ATOM     12  N   UNL d   1       5.545  -0.875 -17.979  0.00  0.00    -0.330 N 
ATOM     13  C   UNL d   1       5.600  -1.183 -16.560  0.00  0.00     0.138 C 
ATOM     14  C   UNL d   1       6.537  -0.200 -15.821  0.00  0.00     0.274 C 
BRANCH  12  15
ATOM     15  C   UNL d   1       5.851  -1.831 -18.974  0.00  0.00     0.138 A 
ATOM     16  C   UNL d   1       5.417  -3.159 -18.864  0.00  0.00     0.036 A 
ATOM     17  C   UNL d   1       5.721  -4.083 -19.842  0.00  0.00     0.095 A 
ATOM     18  C   UNL d   1       4.568  -3.814 -17.830  0.00  0.00     0.064 C 
ATOM     19  C   UNL d   1       6.501  -3.693 -20.941  0.00  0.00     0.045 A 
ATOM     20  O   UNL d   1       5.181  -5.316 -19.603  0.00  0.00    -0.331 OA
ATOM     21  C   UNL d   1       6.901  -2.340 -20.988  0.00  0.00     0.103 A 
ATOM     22  N   UNL d   1       6.579  -1.423 -20.039  0.00  0.00    -0.228 NA
ATOM     23  C   UNL d   1       4.320  -5.200 -18.453  0.00  0.00     0.154 C 
ENDBRANCH  12  15
ENDBRANCH   8   9
ENDBRANCH   7   8
ENDBRANCH   4   7
BRANCH   1  24
ATOM     24  N   UNL d   1       8.491   6.127 -10.349  0.00  0.00    -0.236 NA
ATOM     25  C   UNL d   1       9.463   6.891 -10.743  0.00  0.00     0.275 C 
ATOM     26  O   UNL d   1       9.775   7.001 -11.943  0.00  0.00    -0.266 OA
BRANCH  25  27
ATOM     27  C   UNL d   1      10.077   7.746  -9.714  0.00  0.00     0.058 A 
ATOM     28  C   UNL d   1      10.451   8.992 -10.133  0.00  0.00     0.005 A 
ATOM     29  C   UNL d   1      11.102   9.835  -9.248  0.00  0.00     0.000 A 
ATOM     30  C   UNL d   1      11.267   9.472  -7.897  0.00  0.00     0.003 A 
ATOM     31  C   UNL d   1      10.879   8.201  -7.458  0.00  0.00     0.038 A 
ATOM     32  C   UNL d   1      10.268   7.328  -8.376  0.00  0.00     0.008 A 
BRANCH  31  33
ATOM     33  C   UNL d   1      11.158   7.778  -6.085  0.00  0.00     0.191 A 
ATOM     34  N   UNL d   1      11.450   8.663  -5.087  0.00  0.00    -0.203 NA
ATOM     35  C   UNL d   1      11.623   7.812  -4.078  0.00  0.00     0.185 A 
ATOM     36  C   UNL d   1      11.899   8.139  -2.659  0.00  0.00     0.083 C 
ATOM     37  O   UNL d   1      11.465   6.510  -4.407  0.00  0.00    -0.195 OA
ATOM     38  N   UNL d   1      11.157   6.497  -5.772  0.00  0.00    -0.105 NA
ENDBRANCH  31  33
ENDBRANCH  25  27
ENDBRANCH   1  24
TORSDOF 7
