REMARK  7 active torsions:
REMARK  status: ('A' for Active; 'I' for Inactive)
REMARK    1  A    between atoms: O_2  and  C_3 
REMARK    2  A    between atoms: C_3  and  C_4 
REMARK       I    between atoms: C_4  and  N_6 
REMARK    3  A    between atoms: N_6  and  C_7 
REMARK    4  A    between atoms: C_10  and  C_11 
REMARK    5  A    between atoms: C_11  and  C_12 
REMARK    6  A    between atoms: C_12  and  N_13 
REMARK    7  A    between atoms: C_16  and  C_17 
ROOT
ATOM      1  N   UNL d   1       7.735   5.246 -12.674  0.00  0.00     0.137 N 
ATOM      2  C   UNL d   1       6.326   4.834 -12.622  0.00  0.00     0.251 C 
ATOM      3  C   UNL d   1       6.011   3.873 -13.771  0.00  0.00     0.040 C 
ATOM      4  C   UNL d   1       6.921   2.647 -13.755  0.00  0.00     0.028 C 
ATOM      5  C   UNL d   1       8.393   3.081 -13.622  0.00  0.00     0.040 C 
ATOM      6  C   UNL d   1       8.581   4.065 -12.473  0.00  0.00     0.251 C 
ENDROOT
BRANCH   1   7
ATOM      7  C   UNL d   1       7.931   6.229 -11.610  0.00  0.00     0.250 C 
BRANCH   7   8
ATOM      8  C   UNL d   1       9.412   6.618 -11.386  0.00  0.00     0.035 C 
BRANCH   8   9
ATOM      9  C   UNL d   1       9.655   7.427 -10.105  0.00  0.00     0.002 C 
ATOM     10  C   UNL d   1       9.248   6.611  -8.856  0.00  0.00     0.002 C 
ATOM     11  C   UNL d   1       9.559   7.378  -7.573  0.00  0.00     0.024 C 
ATOM     12  C   UNL d   1      11.043   7.768  -7.513  0.00  0.00     0.106 C 
ATOM     13  C   UNL d   1      11.479   8.563  -8.741  0.00  0.00     0.024 C 
ATOM     14  C   UNL d   1      11.147   7.800 -10.021  0.00  0.00     0.002 C 
BRANCH  12  15
ATOM     15  N   UNL d   1      11.305   8.561  -6.320  0.00  0.00    -0.238 NA
ATOM     16  C   UNL d   1      11.448   8.003  -5.107  0.00  0.00     0.282 C 
ATOM     17  O   UNL d   1      11.339   6.801  -4.928  0.00  0.00    -0.268 OA
BRANCH  16  18
ATOM     18  C   UNL d   1      11.748   8.934  -3.946  0.00  0.00     0.232 C 
BRANCH  18  19
ATOM     19  O   UNL d   1      12.584   8.290  -2.988  0.00  0.00    -0.342 OA
ATOM     20  C   UNL d   1      11.990   7.236  -2.243  0.00  0.00     0.175 C 
ENDBRANCH  18  19
ENDBRANCH  16  18
ENDBRANCH  12  15
ENDBRANCH   8   9
ENDBRANCH   7   8
ENDBRANCH   1   7
BRANCH   4  21
ATOM     21  C   UNL d   1       6.751   1.777 -14.968  0.00  0.00     0.004 A 
ATOM     22  C   UNL d   1       5.872   0.653 -15.128  0.00  0.00     0.021 A 
ATOM     23  C   UNL d   1       6.051   0.199 -16.456  0.00  0.00     0.100 A 
ATOM     24  C   UNL d   1       4.915  -0.025 -14.333  0.00  0.00     0.002 A 
ATOM     25  O   UNL d   1       6.996   0.975 -17.089  0.00  0.00    -0.305 OA
ATOM     26  C   UNL d   1       5.335  -0.874 -17.003  0.00  0.00     0.025 A 
ATOM     27  C   UNL d   1       7.411   1.895 -16.173  0.00  0.00     0.118 A 
ATOM     28  C   UNL d   1       4.390  -1.533 -16.193  0.00  0.00     0.002 A 
ATOM     29  C   UNL d   1       4.174  -1.099 -14.867  0.00  0.00     0.000 A 
ENDBRANCH   4  21
TORSDOF 7
