REMARK  7 active torsions:
REMARK  status: ('A' for Active; 'I' for Inactive)
REMARK    1  A    between atoms: C_5  and  C_6 
REMARK    2  A    between atoms: N_14  and  C_15 
REMARK    3  A    between atoms: C_15  and  C_16 
REMARK    4  A    between atoms: C_16  and  C_17 
REMARK    5  A    between atoms: C_17  and  C_18 
REMARK    6  A    between atoms: C_18  and  O_19 
REMARK    7  A    between atoms: O_19  and  C_20 
ROOT
ATOM      1  C   UNL d   1       9.939   8.077 -10.248  0.00  0.00     0.251 C 
ENDROOT
BRANCH   1   2
ATOM      2  N   UNL d   1      10.483   6.895  -9.556  0.00  0.00     0.140 N 
ATOM      3  C   UNL d   1       9.480   5.832  -9.218  0.00  0.00     0.249 C 
ATOM      4  C   UNL d   1      10.094   4.533  -8.791  0.00  0.00     0.038 C 
ATOM      5  C   UNL d   1       8.523   6.276  -8.103  0.00  0.00     0.176 C 
ATOM      6  O   UNL d   1       9.214   6.685  -6.939  0.00  0.00    -0.348 OA
ATOM      7  C   UNL d   1      10.147   7.742  -7.189  0.00  0.00     0.172 C 
ATOM      8  C   UNL d   1      11.156   7.350  -8.303  0.00  0.00     0.284 C 
BRANCH   7   9
ATOM      9  C   UNL d   1      10.874   8.002  -5.897  0.00  0.00     0.026 A 
ATOM     10  C   UNL d   1      11.164   9.312  -5.463  0.00  0.00     0.098 A 
ATOM     11  N   UNL d   1      11.788   9.564  -4.299  0.00  0.00    -0.230 NA
ATOM     12  C   UNL d   1      12.135   8.498  -3.531  0.00  0.00     0.151 A 
ATOM     13  C   UNL d   1      11.912   7.172  -3.885  0.00  0.00     0.033 A 
ATOM     14  N   UNL d   1      12.725   8.791  -2.304  0.00  0.00    -0.080 NA
ATOM     15  C   UNL d   1      11.266   6.916  -5.096  0.00  0.00     0.002 A 
ENDBRANCH   7   9
ENDBRANCH   1   2
BRANCH   1  16
ATOM     16  C   UNL d   1       9.384   7.928 -11.675  0.00  0.00     0.038 C 
BRANCH  16  17
ATOM     17  C   UNL d   1       8.412   6.764 -11.822  0.00  0.00     0.035 C 
BRANCH  17  18
ATOM     18  C   UNL d   1       7.333   6.888 -12.844  0.00  0.00     0.149 C 
BRANCH  18  19
ATOM     19  O   UNL d   1       6.445   5.769 -12.721  0.00  0.00    -0.331 OA
BRANCH  19  20
ATOM     20  C   UNL d   1       6.792   4.533 -13.227  0.00  0.00     0.096 A 
ATOM     21  C   UNL d   1       5.899   3.451 -13.072  0.00  0.00     0.043 A 
ATOM     22  C   UNL d   1       6.191   2.201 -13.659  0.00  0.00     0.082 A 
ATOM     23  C   UNL d   1       7.378   2.031 -14.409  0.00  0.00    -0.004 A 
ATOM     24  N   UNL d   1       5.320   1.109 -13.488  0.00  0.00    -0.212 NA
ATOM     25  C   UNL d   1       8.285   3.082 -14.543  0.00  0.00    -0.001 A 
ATOM     26  C   UNL d   1       7.699   0.668 -14.988  0.00  0.00     0.038 C 
ATOM     27  C   UNL d   1       8.004   4.329 -13.949  0.00  0.00     0.024 A 
ATOM     28  C   UNL d   1       6.414  -0.099 -15.341  0.00  0.00     0.095 C 
ATOM     29  C   UNL d   1       5.356  -0.017 -14.217  0.00  0.00     0.256 C 
ATOM     30  O   UNL d   1       4.563  -0.911 -14.041  0.00  0.00    -0.270 OA
ENDBRANCH  19  20
ENDBRANCH  18  19
ENDBRANCH  17  18
ENDBRANCH  16  17
ENDBRANCH   1  16
TORSDOF 7
