REMARK  3 active torsions:
REMARK  status: ('A' for Active; 'I' for Inactive)
REMARK    1  A    between atoms: C_2  and  C_3 
REMARK    2  A    between atoms: C_3  and  N_4 
REMARK    3  A    between atoms: N_4  and  C_5 
ROOT
ATOM      1  C   UNL d   1      10.374   7.789  -7.694  0.00  0.00     0.261 C 
ATOM      2  C   UNL d   1       9.824   9.155  -7.280  0.00  0.00     0.041 C 
ATOM      3  C   UNL d   1      10.756   9.839  -6.255  0.00  0.00     0.028 C 
ATOM      4  C   UNL d   1      11.199   8.906  -5.132  0.00  0.00    -0.026 A 
ATOM      5  C   UNL d   1      11.749   9.438  -3.946  0.00  0.00    -0.003 A 
ATOM      6  C   UNL d   1      12.197   8.601  -2.916  0.00  0.00     0.027 A 
ATOM      7  C   UNL d   1      12.066   7.209  -3.046  0.00  0.00     0.131 A 
ATOM      8  O   UNL d   1      12.462   6.388  -2.039  0.00  0.00    -0.190 OA
ATOM      9  C   UNL d   1      11.499   6.667  -4.215  0.00  0.00     0.023 A 
ATOM     10  C   UNL d   1      11.065   7.503  -5.256  0.00  0.00    -0.022 A 
ATOM     11  C   UNL d   1      10.447   6.863  -6.472  0.00  0.00     0.062 C 
ENDROOT
BRANCH   1  12
ATOM     12  N   UNL d   1       9.532   7.215  -8.727  0.00  0.00     0.337 N 
BRANCH  12  13
ATOM     13  C   UNL d   1      10.141   6.054  -9.366  0.00  0.00     0.290 C 
BRANCH  13  14
ATOM     14  C   UNL d   1       9.151   5.387 -10.319  0.00  0.00     0.038 C 
ATOM     15  C   UNL d   1       8.921   6.196 -11.600  0.00  0.00     0.002 C 
ENDBRANCH  13  14
ENDBRANCH  12  13
ENDBRANCH   1  12
TORSDOF 3
