REMARK  4 active torsions:
REMARK  status: ('A' for Active; 'I' for Inactive)
REMARK    1  A    between atoms: C_2  and  C_3 
REMARK    2  A    between atoms: C_8  and  N_9 
REMARK    3  A    between atoms: N_20  and  S_21 
REMARK    4  A    between atoms: S_21  and  C_24 
ROOT
ATOM      1  C   UNL d   1      10.415   0.555 -18.449  0.00  0.00     0.105 C 
ATOM      2  C   UNL d   1      10.412  -0.015 -17.026  0.00  0.00     0.093 C 
ATOM      3  C   UNL d   1       9.807   0.928 -16.009  0.00  0.00     0.178 C 
ATOM      4  O   UNL d   1       9.183   0.427 -15.055  0.00  0.00    -0.291 OA
ATOM      5  C   UNL d   1      10.066   2.394 -16.278  0.00  0.00     0.067 C 
ATOM      6  C   UNL d   1       9.739   3.420 -15.351  0.00  0.00     0.060 C 
ATOM      7  C   UNL d   1       9.983   4.783 -15.650  0.00  0.00     0.017 C 
ATOM      8  C   UNL d   1      10.661   5.138 -16.823  0.00  0.00     0.003 C 
ATOM      9  C   UNL d   1      11.073   4.143 -17.692  0.00  0.00     0.018 C 
ATOM     10  C   UNL d   1      10.694   2.788 -17.490  0.00  0.00     0.074 C 
ATOM     11  N   UNL d   1      10.998   1.895 -18.572  0.00  0.00    -0.255 N 
ENDROOT
BRANCH  11  12
ATOM     12  S   UNL d   1      11.649   2.414 -20.154  0.00  0.00     0.268 S 
ATOM     13  O   UNL d   1      12.936   3.095 -19.884  0.00  0.00    -0.200 OA
ATOM     14  O   UNL d   1      11.643   1.250 -21.033  0.00  0.00    -0.200 OA
BRANCH  12  15
ATOM     15  C   UNL d   1      10.452   3.641 -20.799  0.00  0.00     0.104 A 
ATOM     16  C   UNL d   1      10.605   5.036 -20.595  0.00  0.00     0.013 A 
ATOM     17  C   UNL d   1       9.627   5.937 -21.020  0.00  0.00     0.001 A 
ATOM     18  C   UNL d   1       8.497   5.472 -21.741  0.00  0.00     0.000 A 
ATOM     19  C   UNL d   1       9.770   7.314 -20.745  0.00  0.00     0.000 A 
ATOM     20  C   UNL d   1       8.339   4.090 -21.978  0.00  0.00     0.001 A 
ATOM     21  C   UNL d   1       7.554   6.400 -22.244  0.00  0.00     0.000 A 
ATOM     22  C   UNL d   1       9.311   3.184 -21.494  0.00  0.00     0.013 A 
ATOM     23  C   UNL d   1       7.739   7.777 -22.000  0.00  0.00     0.000 A 
ATOM     24  C   UNL d   1       8.831   8.240 -21.239  0.00  0.00     0.000 A 
ENDBRANCH  12  15
ENDBRANCH  11  12
BRANCH   1  25
ATOM     25  C   UNL d   1       9.005   0.527 -19.065  0.00  0.00     0.024 C 
ATOM     26  C   UNL d   1       8.465  -0.883 -19.324  0.00  0.00     0.002 C 
ENDBRANCH   1  25
BRANCH   6  27
ATOM     27  N   UNL d   1       9.175   3.104 -14.096  0.00  0.00    -0.344 N 
ATOM     28  C   UNL d   1       7.758   3.387 -13.993  0.00  0.00     0.137 C 
ATOM     29  C   UNL d   1       7.535   4.842 -13.568  0.00  0.00     0.274 C 
ATOM     30  N   UNL d   1       8.260   5.117 -12.320  0.00  0.00     0.143 N 
ATOM     31  C   UNL d   1       9.715   4.943 -12.478  0.00  0.00     0.274 C 
ATOM     32  C   UNL d   1       8.030   6.498 -11.950  0.00  0.00     0.286 C 
ATOM     33  C   UNL d   1       9.993   3.503 -12.961  0.00  0.00     0.137 C 
ENDBRANCH   6  27
TORSDOF 4
