REMARK  4 active torsions:
REMARK  status: ('A' for Active; 'I' for Inactive)
REMARK    1  A    between atoms: C_10  and  C_11 
REMARK    2  A    between atoms: C_11  and  C_12 
REMARK    3  A    between atoms: C_12  and  N_13 
REMARK    4  A    between atoms: C_16  and  C_17 
ROOT
ATOM      1  N   UNL d   1       9.067   6.215  -9.702  0.00  0.00     0.137 N 
ATOM      2  C   UNL d   1      10.532   6.293  -9.623  0.00  0.00     0.251 C 
ATOM      3  C   UNL d   1      10.983   7.326  -8.609  0.00  0.00     0.041 C 
ATOM      4  C   UNL d   1      10.441   6.994  -7.221  0.00  0.00     0.047 C 
ATOM      5  C   UNL d   1       8.923   6.768  -7.290  0.00  0.00     0.041 C 
ATOM      6  C   UNL d   1       8.566   5.759  -8.403  0.00  0.00     0.251 C 
ENDROOT
BRANCH   1   7
ATOM      7  C   UNL d   1       8.644   5.267 -10.731  0.00  0.00     0.250 C 
BRANCH   7   8
ATOM      8  C   UNL d   1       9.258   5.485 -12.145  0.00  0.00     0.038 C 
BRANCH   8   9
ATOM      9  C   UNL d   1       9.446   4.152 -12.915  0.00  0.00     0.037 C 
ATOM     10  C   UNL d   1       8.191   3.831 -13.751  0.00  0.00     0.174 C 
ATOM     11  C   UNL d   1       8.415   2.689 -14.731  0.00  0.00     0.005 A 
ATOM     12  O   UNL d   1       7.061   3.645 -12.915  0.00  0.00    -0.219 OA
ATOM     13  C   UNL d   1       9.709   2.239 -15.102  0.00  0.00    -0.024 A 
ATOM     14  C   UNL d   1       7.282   2.081 -15.314  0.00  0.00     0.012 A 
ATOM     15  C   UNL d   1       9.854   1.184 -16.021  0.00  0.00    -0.003 A 
ATOM     16  C   UNL d   1      10.963   2.846 -14.492  0.00  0.00     0.026 C 
ATOM     17  C   UNL d   1       8.708   0.586 -16.591  0.00  0.00     0.014 A 
ATOM     18  C   UNL d   1       7.423   1.044 -16.246  0.00  0.00     0.070 A 
ATOM     19  N   UNL d   1       6.281   0.491 -16.822  0.00  0.00    -0.101 NA
ATOM     20  C   UNL d   1      10.699   4.189 -13.812  0.00  0.00     0.008 C 
ENDBRANCH   8   9
ENDBRANCH   7   8
ENDBRANCH   1   7
BRANCH   4  21
ATOM     21  C   UNL d   1      10.818   8.090  -6.254  0.00  0.00     0.087 A 
ATOM     22  C   UNL d   1      11.425   8.029  -4.991  0.00  0.00     0.041 A 
ATOM     23  C   UNL d   1      11.538   9.315  -4.473  0.00  0.00     0.129 A 
ATOM     24  C   UNL d   1      11.857   6.921  -4.222  0.00  0.00     0.006 A 
ATOM     25  O   UNL d   1      11.018  10.155  -5.444  0.00  0.00    -0.211 OA
ATOM     26  C   UNL d   1      12.055   9.584  -3.207  0.00  0.00     0.057 A 
ATOM     27  N   UNL d   1      10.574   9.365  -6.543  0.00  0.00    -0.131 NA
ATOM     28  C   UNL d   1      12.505   8.485  -2.441  0.00  0.00     0.142 A 
ATOM     29  F   UNL d   1      13.059   8.707  -1.234  0.00  0.00    -0.204 F 
ATOM     30  C   UNL d   1      12.395   7.168  -2.941  0.00  0.00     0.030 A 
ENDBRANCH   4  21
TORSDOF 4
