REMARK  7 active torsions:
REMARK  status: ('A' for Active; 'I' for Inactive)
REMARK    1  A    between atoms: S_2  and  N_4 
REMARK    2  A    between atoms: S_2  and  C_19 
REMARK    3  A    between atoms: N_4  and  C_5 
REMARK    4  A    between atoms: N_8  and  C_9 
REMARK    5  A    between atoms: C_9  and  C_10 
REMARK    6  A    between atoms: C_10  and  O_11 
REMARK    7  A    between atoms: O_11  and  C_12 
ROOT
ATOM      1  C   UNL d   1      10.118   6.566  -8.782  0.00  0.00     0.151 C 
ATOM      2  C   UNL d   1      10.521   7.163 -10.135  0.00  0.00     0.063 C 
ATOM      3  C   UNL d   1       9.454   6.684 -11.108  0.00  0.00     0.253 C 
ATOM      4  N   UNL d   1       8.971   5.447 -10.508  0.00  0.00     0.142 N 
ATOM      5  C   UNL d   1       8.840   5.778  -9.091  0.00  0.00     0.275 C 
ENDROOT
BRANCH   1   6
ATOM      6  N   UNL d   1       9.884   7.624  -7.794  0.00  0.00    -0.184 NA
BRANCH   6   7
ATOM      7  S   UNL d   1      11.192   8.592  -7.232  0.00  0.00     0.287 S 
ATOM      8  O   UNL d   1      12.397   8.258  -8.002  0.00  0.00    -0.198 OA
ATOM      9  O   UNL d   1      10.754   9.983  -7.057  0.00  0.00    -0.198 OA
BRANCH   7  10
ATOM     10  C   UNL d   1      11.466   8.047  -5.589  0.00  0.00     0.135 A 
ATOM     11  S   UNL d   1      12.122   9.188  -4.449  0.00  0.00    -0.062 SA
ATOM     12  C   UNL d   1      12.110   7.987  -3.219  0.00  0.00     0.088 A 
ATOM     13  C   UNL d   1      11.628   6.783  -3.659  0.00  0.00     0.019 A 
ATOM     14 CL   UNL d   1      12.652   8.405  -1.654  0.00  0.00    -0.075 Cl
ATOM     15  C   UNL d   1      11.248   6.819  -5.038  0.00  0.00     0.021 A 
ENDBRANCH   7  10
ENDBRANCH   6   7
ENDBRANCH   1   6
BRANCH   4  16
ATOM     16  C   UNL d   1       7.679   5.040 -11.053  0.00  0.00     0.283 C 
BRANCH  16  17
ATOM     17  C   UNL d   1       7.777   4.635 -12.531  0.00  0.00     0.184 C 
BRANCH  17  18
ATOM     18  O   UNL d   1       6.513   4.109 -12.931  0.00  0.00    -0.329 OA
BRANCH  18  19
ATOM     19  C   UNL d   1       6.527   2.896 -13.570  0.00  0.00     0.094 A 
ATOM     20  C   UNL d   1       5.505   1.976 -13.241  0.00  0.00     0.024 A 
ATOM     21  C   UNL d   1       5.499   0.691 -13.819  0.00  0.00     0.002 A 
ATOM     22  C   UNL d   1       6.516   0.314 -14.721  0.00  0.00     0.000 A 
ATOM     23  C   UNL d   1       7.525   1.231 -15.062  0.00  0.00     0.002 A 
ATOM     24  C   UNL d   1       7.524   2.517 -14.503  0.00  0.00     0.024 A 
ENDBRANCH  18  19
ENDBRANCH  17  18
ENDBRANCH  16  17
ENDBRANCH   4  16
TORSDOF 7
