REMARK  5 active torsions:
REMARK  status: ('A' for Active; 'I' for Inactive)
REMARK       I    between atoms: C_2  and  N_3 
REMARK    1  A    between atoms: C_2  and  C_16 
REMARK    2  A    between atoms: N_3  and  C_4 
REMARK    3  A    between atoms: N_7  and  C_8 
REMARK    4  A    between atoms: C_8  and  C_9 
REMARK    5  A    between atoms: C_19  and  C_20 
ROOT
ATOM      1  O   UNL d   1       9.856   8.259 -11.314  0.00  0.00    -0.266 OA
ATOM      2  C   UNL d   1       9.782   7.309 -10.536  0.00  0.00     0.275 C 
ATOM      3  N   UNL d   1       9.308   6.094 -10.876  0.00  0.00    -0.234 NA
ENDROOT
BRANCH   2   4
ATOM      4  C   UNL d   1      10.227   7.475  -9.116  0.00  0.00     0.058 A 
ATOM      5  C   UNL d   1      11.275   8.370  -8.815  0.00  0.00     0.005 A 
ATOM      6  C   UNL d   1      11.671   8.577  -7.480  0.00  0.00     0.000 A 
ATOM      7  C   UNL d   1      11.023   7.895  -6.427  0.00  0.00     0.000 A 
ATOM      8  C   UNL d   1       9.956   7.024  -6.730  0.00  0.00     0.000 A 
ATOM      9  C   UNL d   1       9.551   6.821  -8.062  0.00  0.00     0.005 A 
BRANCH   7  10
ATOM     10  C   UNL d   1      11.450   8.097  -5.038  0.00  0.00     0.002 A 
ATOM     11  C   UNL d   1      11.850   7.004  -4.244  0.00  0.00     0.030 A 
ATOM     12  C   UNL d   1      12.259   7.200  -2.910  0.00  0.00     0.140 A 
ATOM     13  C   UNL d   1      12.267   8.497  -2.363  0.00  0.00     0.030 A 
ATOM     14  F   UNL d   1      12.656   6.152  -2.153  0.00  0.00    -0.204 F 
ATOM     15  C   UNL d   1      11.855   9.592  -3.146  0.00  0.00     0.002 A 
ATOM     16  C   UNL d   1      11.462   9.394  -4.480  0.00  0.00     0.000 A 
ENDBRANCH   7  10
ENDBRANCH   2   4
BRANCH   3  17
ATOM     17  C   UNL d   1       8.626   5.772 -12.134  0.00  0.00     0.142 C 
ATOM     18  C   UNL d   1       7.984   4.386 -12.069  0.00  0.00     0.275 C 
ATOM     19  N   UNL d   1       6.781   4.504 -12.889  0.00  0.00     0.143 N 
ATOM     20  C   UNL d   1       6.204   5.755 -12.441  0.00  0.00     0.253 C 
ATOM     21  C   UNL d   1       7.418   6.668 -12.434  0.00  0.00     0.062 C 
BRANCH  19  22
ATOM     22  C   UNL d   1       5.857   3.378 -12.756  0.00  0.00     0.277 C 
BRANCH  22  23
ATOM     23  C   UNL d   1       6.197   2.189 -13.644  0.00  0.00     0.011 A 
ATOM     24  C   UNL d   1       5.550   0.954 -13.418  0.00  0.00    -0.002 A 
ATOM     25  C   UNL d   1       5.811  -0.147 -14.261  0.00  0.00    -0.000 A 
ATOM     26  C   UNL d   1       6.709  -0.011 -15.336  0.00  0.00    -0.000 A 
ATOM     27  C   UNL d   1       7.367   1.207 -15.554  0.00  0.00    -0.000 A 
ATOM     28  C   UNL d   1       7.116   2.301 -14.709  0.00  0.00    -0.002 A 
ENDBRANCH  22  23
ENDBRANCH  19  22
ENDBRANCH   3  17
TORSDOF 5
