REMARK  3 active torsions:
REMARK  status: ('A' for Active; 'I' for Inactive)
REMARK    1  A    between atoms: C_4  and  C_5 
REMARK    2  A    between atoms: C_5  and  N_6 
REMARK    3  A    between atoms: C_9  and  C_11 
ROOT
ATOM      1  N   UNL d   1       9.940   6.911 -10.828  0.00  0.00     0.142 N 
ATOM      2  C   UNL d   1       9.093   6.221  -9.861  0.00  0.00     0.254 C 
ATOM      3  C   UNL d   1       9.652   6.352  -8.447  0.00  0.00     0.070 C 
ATOM      4  C   UNL d   1       9.910   7.824  -7.993  0.00  0.00     0.149 C 
ATOM      5  O   UNL d   1       8.684   8.517  -7.867  0.00  0.00    -0.221 OA
ATOM      6  C   UNL d   1      10.715   8.523  -9.105  0.00  0.00     0.070 C 
ATOM      7  C   UNL d   1      10.067   8.331 -10.488  0.00  0.00     0.254 C 
ENDROOT
BRANCH   1   8
ATOM      8  C   UNL d   1       9.366   6.790 -12.166  0.00  0.00     0.278 C 
BRANCH   8   9
ATOM      9  C   UNL d   1       9.315   5.437 -12.812  0.00  0.00     0.029 A 
ATOM     10  C   UNL d   1      10.370   4.670 -13.251  0.00  0.00     0.074 A 
ATOM     11  N   UNL d   1       9.920   3.478 -13.787  0.00  0.00    -0.325 N 
ATOM     12  C   UNL d   1      10.785   2.457 -14.348  0.00  0.00     0.131 C 
ATOM     13  C   UNL d   1       8.547   3.440 -13.694  0.00  0.00     0.060 A 
ATOM     14  C   UNL d   1       8.139   4.658 -13.066  0.00  0.00     0.015 A 
ATOM     15  C   UNL d   1       7.617   2.456 -14.065  0.00  0.00     0.017 A 
ATOM     16  C   UNL d   1       6.754   4.845 -12.838  0.00  0.00     0.001 A 
ATOM     17  C   UNL d   1       5.820   3.858 -13.215  0.00  0.00     0.000 A 
ATOM     18  C   UNL d   1       6.252   2.663 -13.819  0.00  0.00     0.002 A 
ENDBRANCH   8   9
ENDBRANCH   1   8
BRANCH   4  19
ATOM     19  C   UNL d   1      10.640   7.932  -6.643  0.00  0.00     0.005 A 
ATOM     20  C   UNL d   1      11.071   6.791  -5.930  0.00  0.00    -0.001 A 
ATOM     21  C   UNL d   1      11.678   6.894  -4.669  0.00  0.00     0.011 A 
ATOM     22  C   UNL d   1      11.882   8.163  -4.088  0.00  0.00     0.058 A 
ATOM     23  C   UNL d   1      11.462   9.316  -4.781  0.00  0.00     0.011 A 
ATOM     24 CL   UNL d   1      12.641   8.292  -2.537  0.00  0.00    -0.082 Cl
ATOM     25  C   UNL d   1      10.847   9.199  -6.046  0.00  0.00    -0.001 A 
ENDBRANCH   4  19
TORSDOF 3
