REMARK  4 active torsions:
REMARK  status: ('A' for Active; 'I' for Inactive)
REMARK    1  A    between atoms: C_3  and  C_4 
REMARK    2  A    between atoms: N_13  and  C_14 
REMARK    3  A    between atoms: N_17  and  C_18 
REMARK    4  A    between atoms: C_18  and  C_19 
ROOT
ATOM      1  C   UNL d   1       9.222   6.806  -6.372  0.00  0.00     0.052 C 
ATOM      2  C   UNL d   1      10.412   7.568  -6.920  0.00  0.00     0.059 A 
ATOM      3  C   UNL d   1      11.408   8.165  -6.270  0.00  0.00     0.098 A 
ATOM      4  N   UNL d   1      12.240   8.715  -7.221  0.00  0.00    -0.191 NA
ATOM      5  C   UNL d   1      11.786   8.402  -8.432  0.00  0.00     0.350 A 
ATOM      6  O   UNL d   1      12.359   8.716  -9.479  0.00  0.00    -0.244 OA
ATOM      7  N   UNL d   1      10.624   7.738  -8.284  0.00  0.00    -0.284 N 
ENDROOT
BRANCH   7   8
ATOM      8  C   UNL d   1       9.655   7.331  -9.318  0.00  0.00     0.094 C 
ATOM      9  C   UNL d   1       9.956   7.979 -10.685  0.00  0.00     0.058 C 
ATOM     10  C   UNL d   1       9.073   7.469 -11.834  0.00  0.00     0.253 C 
ATOM     11  N   UNL d   1       9.210   6.018 -11.933  0.00  0.00     0.141 N 
ATOM     12  C   UNL d   1       8.745   5.402 -10.697  0.00  0.00     0.253 C 
ATOM     13  C   UNL d   1       9.630   5.808  -9.512  0.00  0.00     0.058 C 
BRANCH  11  14
ATOM     14  C   UNL d   1       8.409   5.532 -13.052  0.00  0.00     0.277 C 
BRANCH  14  15
ATOM     15  C   UNL d   1       8.895   4.210 -13.627  0.00  0.00     0.011 A 
ATOM     16  C   UNL d   1       7.963   3.238 -14.035  0.00  0.00    -0.002 A 
ATOM     17  C   UNL d   1       8.405   2.028 -14.609  0.00  0.00    -0.000 A 
ATOM     18  C   UNL d   1       9.783   1.792 -14.782  0.00  0.00    -0.000 A 
ATOM     19  C   UNL d   1      10.720   2.764 -14.382  0.00  0.00    -0.000 A 
ATOM     20  C   UNL d   1      10.278   3.969 -13.805  0.00  0.00    -0.002 A 
ENDBRANCH  14  15
ENDBRANCH  11  14
ENDBRANCH   7   8
BRANCH   3  21
ATOM     21  C   UNL d   1      11.699   8.207  -4.838  0.00  0.00     0.019 A 
ATOM     22  C   UNL d   1      11.832   9.476  -4.250  0.00  0.00     0.002 A 
ATOM     23  C   UNL d   1      12.098   9.571  -2.880  0.00  0.00     0.000 A 
ATOM     24  C   UNL d   1      12.266   8.409  -2.097  0.00  0.00     0.000 A 
ATOM     25  C   UNL d   1      12.132   7.137  -2.689  0.00  0.00     0.000 A 
ATOM     26  C   UNL d   1      11.852   7.042  -4.068  0.00  0.00     0.002 A 
ENDBRANCH   3  21
TORSDOF 4
