REMARK  6 active torsions:
REMARK  status: ('A' for Active; 'I' for Inactive)
REMARK    1  A    between atoms: C_2  and  C_5 
REMARK       I    between atoms: C_5  and  N_7 
REMARK    2  A    between atoms: N_7  and  C_8 
REMARK    3  A    between atoms: C_11  and  C_12 
REMARK    4  A    between atoms: C_12  and  C_13 
REMARK    5  A    between atoms: C_13  and  N_14 
REMARK    6  A    between atoms: N_17  and  C_18 
ROOT
ATOM      1  N   UNL d   1       7.686   5.040 -12.504  0.00  0.00     0.141 N 
ATOM      2  C   UNL d   1       8.661   4.037 -12.963  0.00  0.00     0.274 C 
ATOM      3  C   UNL d   1       8.263   3.492 -14.341  0.00  0.00     0.137 C 
ATOM      4  N   UNL d   1       6.907   2.977 -14.284  0.00  0.00    -0.343 N 
ATOM      5  C   UNL d   1       5.895   3.857 -13.717  0.00  0.00     0.137 C 
ATOM      6  C   UNL d   1       6.369   4.401 -12.360  0.00  0.00     0.274 C 
ENDROOT
BRANCH   1   7
ATOM      7  C   UNL d   1       8.062   5.583 -11.202  0.00  0.00     0.250 C 
BRANCH   7   8
ATOM      8  C   UNL d   1       9.372   6.404 -11.248  0.00  0.00     0.035 C 
BRANCH   8   9
ATOM      9  C   UNL d   1       9.697   7.179  -9.959  0.00  0.00     0.002 C 
ATOM     10  C   UNL d   1       9.414   6.366  -8.681  0.00  0.00     0.002 C 
ATOM     11  C   UNL d   1       9.723   7.171  -7.426  0.00  0.00     0.024 C 
ATOM     12  C   UNL d   1      11.175   7.674  -7.430  0.00  0.00     0.106 C 
ATOM     13  C   UNL d   1      11.493   8.472  -8.706  0.00  0.00     0.024 C 
ATOM     14  C   UNL d   1      11.149   7.677  -9.973  0.00  0.00     0.002 C 
BRANCH  12  15
ATOM     15  N   UNL d   1      11.429   8.495  -6.254  0.00  0.00    -0.238 NA
ATOM     16  C   UNL d   1      11.552   8.004  -5.015  0.00  0.00     0.279 C 
ATOM     17  O   UNL d   1      11.308   6.834  -4.724  0.00  0.00    -0.268 OA
BRANCH  16  18
ATOM     18  C   UNL d   1      12.129   8.956  -3.957  0.00  0.00     0.199 C 
ATOM     19  C   UNL d   1      12.557   8.201  -2.675  0.00  0.00     0.043 C 
ATOM     20  C   UNL d   1      11.177  10.099  -3.658  0.00  0.00     0.043 C 
ATOM     21  O   UNL d   1      13.251   9.578  -4.497  0.00  0.00    -0.216 OA
ENDBRANCH  16  18
ENDBRANCH  12  15
ENDBRANCH   8   9
ENDBRANCH   7   8
ENDBRANCH   1   7
BRANCH   4  22
ATOM     22  C   UNL d   1       6.593   1.665 -14.685  0.00  0.00     0.081 A 
ATOM     23  C   UNL d   1       7.055   1.123 -15.904  0.00  0.00     0.135 A 
ATOM     24  C   UNL d   1       6.673  -0.139 -16.311  0.00  0.00     0.121 A 
ATOM     25  O   UNL d   1       7.850   1.678 -16.863  0.00  0.00    -0.298 OA
ATOM     26  C   UNL d   1       5.827  -0.946 -15.534  0.00  0.00     0.026 A 
ATOM     27  O   UNL d   1       7.230  -0.425 -17.513  0.00  0.00    -0.299 OA
ATOM     28  C   UNL d   1       5.364  -0.431 -14.308  0.00  0.00     0.004 A 
ATOM     29  C   UNL d   1       5.742   0.861 -13.886  0.00  0.00     0.019 A 
ATOM     30  C   UNL d   1       7.982   0.702 -17.867  0.00  0.00     0.304 A 
ENDBRANCH   4  22
TORSDOF 6
