REMARK  6 active torsions:
REMARK  status: ('A' for Active; 'I' for Inactive)
REMARK    1  A    between atoms: C_2  and  C_3 
REMARK       I    between atoms: C_3  and  N_5 
REMARK    2  A    between atoms: N_5  and  C_6 
REMARK    3  A    between atoms: C_9  and  C_10 
REMARK    4  A    between atoms: C_10  and  C_11 
REMARK    5  A    between atoms: C_11  and  N_12 
REMARK    6  A    between atoms: N_15  and  C_16 
ROOT
ATOM      1  N   UNL d   1       9.029   5.338 -12.202  0.00  0.00     0.141 N 
ATOM      2  C   UNL d   1       9.105   5.973 -13.506  0.00  0.00     0.274 C 
ATOM      3  C   UNL d   1       8.674   5.002 -14.613  0.00  0.00     0.138 C 
ATOM      4  N   UNL d   1       9.505   3.811 -14.559  0.00  0.00    -0.330 N 
ATOM      5  C   UNL d   1       9.607   3.193 -13.252  0.00  0.00     0.138 C 
ATOM      6  C   UNL d   1      10.007   4.242 -12.227  0.00  0.00     0.274 C 
ENDROOT
BRANCH   1   7
ATOM      7  C   UNL d   1       9.429   6.350 -11.231  0.00  0.00     0.250 C 
BRANCH   7   8
ATOM      8  C   UNL d   1       9.068   5.928  -9.809  0.00  0.00     0.035 C 
BRANCH   8   9
ATOM      9  C   UNL d   1       9.404   7.003  -8.754  0.00  0.00     0.002 C 
ATOM     10  C   UNL d   1       9.288   6.397  -7.354  0.00  0.00     0.002 C 
ATOM     11  C   UNL d   1       9.626   7.402  -6.259  0.00  0.00     0.024 C 
ATOM     12  C   UNL d   1      11.044   7.973  -6.478  0.00  0.00     0.106 C 
ATOM     13  C   UNL d   1      11.173   8.620  -7.860  0.00  0.00     0.024 C 
ATOM     14  C   UNL d   1      10.801   7.627  -8.965  0.00  0.00     0.002 C 
BRANCH  12  15
ATOM     15  N   UNL d   1      11.387   8.946  -5.453  0.00  0.00    -0.240 NA
ATOM     16  C   UNL d   1      11.705   8.674  -4.188  0.00  0.00     0.251 C 
ATOM     17  O   UNL d   1      11.990   9.576  -3.401  0.00  0.00    -0.271 OA
BRANCH  16  18
ATOM     18  C   UNL d   1      11.703   7.209  -3.725  0.00  0.00     0.090 C 
ATOM     19  C   UNL d   1      11.988   7.036  -2.229  0.00  0.00     0.010 C 
ENDBRANCH  16  18
ENDBRANCH  12  15
ENDBRANCH   8   9
ENDBRANCH   7   8
ENDBRANCH   1   7
BRANCH   4  20
ATOM     20  C   UNL d   1      10.130   3.273 -15.691  0.00  0.00     0.138 A 
ATOM     21  C   UNL d   1      10.158   1.890 -15.936  0.00  0.00     0.036 A 
ATOM     22  C   UNL d   1      10.795   1.394 -17.065  0.00  0.00     0.095 A 
ATOM     23  C   UNL d   1       9.550   0.750 -15.187  0.00  0.00     0.064 C 
ATOM     24  C   UNL d   1      11.434   2.275 -17.945  0.00  0.00     0.045 A 
ATOM     25  O   UNL d   1      10.689   0.043 -17.193  0.00  0.00    -0.331 OA
ATOM     26  C   UNL d   1      11.362   3.647 -17.634  0.00  0.00     0.103 A 
ATOM     27  N   UNL d   1      10.718   4.141 -16.545  0.00  0.00    -0.228 NA
ATOM     28  C   UNL d   1       9.799  -0.415 -16.163  0.00  0.00     0.154 C 
ENDBRANCH   4  20
TORSDOF 6
