REMARK  8 active torsions:
REMARK  status: ('A' for Active; 'I' for Inactive)
REMARK    1  A    between atoms: C_6  and  C_7 
REMARK    2  A    between atoms: C_10  and  S_11 
REMARK    3  A    between atoms: S_11  and  C_12 
REMARK    4  A    between atoms: C_12  and  C_13 
REMARK    5  A    between atoms: C_13  and  C_14 
REMARK    6  A    between atoms: C_14  and  N_15 
REMARK    7  A    between atoms: C_20  and  C_21 
REMARK    8  A    between atoms: C_24  and  C_25 
ROOT
ATOM      1  N   UNL d   1       9.826   1.830 -15.923  0.00  0.00     0.137 N 
ATOM      2  C   UNL d   1      11.233   2.080 -16.120  0.00  0.00     0.250 C 
ATOM      3  C   UNL d   1      11.496   1.380 -17.428  0.00  0.00     0.038 C 
ATOM      4  C   UNL d   1      10.484   0.273 -17.531  0.00  0.00     0.038 A 
ATOM      5  C   UNL d   1      10.837  -1.079 -18.123  0.00  0.00     0.007 A 
ATOM      6  C   UNL d   1       9.869  -0.179 -18.852  0.00  0.00     0.026 A 
ATOM      7  C   UNL d   1       9.669   0.429 -16.277  0.00  0.00     0.251 C 
ENDROOT
BRANCH   1   8
ATOM      8  C   UNL d   1       9.349   2.069 -14.565  0.00  0.00     0.251 C 
BRANCH   8   9
ATOM      9  C   UNL d   1       9.208   3.571 -14.274  0.00  0.00     0.047 C 
BRANCH   9  10
ATOM     10  C   UNL d   1       8.499   3.838 -12.938  0.00  0.00     0.067 C 
BRANCH  10  11
ATOM     11  S   UNL d   1       8.258   5.620 -12.661  0.00  0.00    -0.075 SA
BRANCH  11  12
ATOM     12  C   UNL d   1       8.956   5.844 -11.047  0.00  0.00     0.193 A 
ATOM     13  N   UNL d   1       9.057   4.894 -10.115  0.00  0.00    -0.122 NA
ATOM     14  N   UNL d   1       9.699   5.480  -9.049  0.00  0.00    -0.126 NA
ATOM     15  C   UNL d   1       9.910   6.743  -9.414  0.00  0.00     0.191 A 
ATOM     16  N   UNL d   1       9.460   7.030 -10.649  0.00  0.00    -0.287 N 
ATOM     17  C   UNL d   1       9.521   8.301 -11.344  0.00  0.00     0.134 C 
BRANCH  15  18
ATOM     18  C   UNL d   1      10.552   7.696  -8.524  0.00  0.00     0.151 A 
ATOM     19  C   UNL d   1      10.090   8.389  -7.444  0.00  0.00     0.087 A 
ATOM     20  C   UNL d   1       8.716   8.449  -6.874  0.00  0.00     0.054 C 
ATOM     21  N   UNL d   1      11.148   9.101  -6.894  0.00  0.00    -0.221 NA
ATOM     22  C   UNL d   1      12.187   8.774  -7.651  0.00  0.00     0.225 A 
ATOM     23  O   UNL d   1      11.894   7.909  -8.665  0.00  0.00    -0.282 OA
ENDBRANCH  15  18
ENDBRANCH  11  12
ENDBRANCH  10  11
ENDBRANCH   9  10
ENDBRANCH   8   9
ENDBRANCH   1   8
BRANCH   6  24
ATOM     24  C   UNL d   1       8.402  -0.469 -18.947  0.00  0.00     0.005 A 
ATOM     25  C   UNL d   1       7.448   0.569 -18.973  0.00  0.00     0.136 A 
ATOM     26  C   UNL d   1       6.080   0.281 -18.954  0.00  0.00     0.033 A 
ATOM     27  F   UNL d   1       7.849   1.874 -18.971  0.00  0.00    -0.205 F 
ATOM     28  C   UNL d   1       5.629  -1.064 -18.914  0.00  0.00     0.074 A 
ATOM     29  C   UNL d   1       6.577  -2.099 -18.876  0.00  0.00     0.004 A 
ATOM     30  C   UNL d   1       7.944  -1.813 -18.899  0.00  0.00    -0.002 A 
BRANCH  28  31
ATOM     31  C   UNL d   1       4.150  -1.379 -18.907  0.00  0.00     0.419 C 
ATOM     32  F   UNL d   1       3.474  -0.365 -19.441  0.00  0.00    -0.166 F 
ATOM     33  F   UNL d   1       3.905  -2.478 -19.626  0.00  0.00    -0.166 F 
ATOM     34  F   UNL d   1       3.731  -1.571 -17.656  0.00  0.00    -0.166 F 
ENDBRANCH  28  31
ENDBRANCH   6  24
TORSDOF 8
