REMARK  2 active torsions:
REMARK  status: ('A' for Active; 'I' for Inactive)
REMARK    1  A    between atoms: N_11  and  C_12 
REMARK    2  A    between atoms: C_12  and  C_13 
ROOT
ATOM      1  N   UNL d   1      12.649   1.533 -18.327  0.00  0.00    -0.191 NA
ATOM      2  C   UNL d   1      12.186   2.190 -17.490  0.00  0.00     0.101 C 
ATOM      3  C   UNL d   1      11.610   3.017 -16.446  0.00  0.00     0.068 A 
ATOM      4  C   UNL d   1      12.239   4.225 -16.080  0.00  0.00     0.012 A 
ATOM      5  C   UNL d   1      11.673   5.047 -15.088  0.00  0.00     0.025 A 
ATOM      6  C   UNL d   1      10.485   4.672 -14.424  0.00  0.00     0.090 A 
ATOM      7  C   UNL d   1       9.852   3.465 -14.807  0.00  0.00     0.003 A 
ATOM      8  C   UNL d   1      10.412   2.635 -15.804  0.00  0.00     0.008 A 
ATOM      9  C   UNL d   1       8.586   3.101 -14.085  0.00  0.00     0.062 C 
ATOM     10  C   UNL d   1       7.510   2.359 -14.837  0.00  0.00     0.255 C 
ATOM     11  N   UNL d   1       6.301   2.559 -14.012  0.00  0.00     0.142 N 
ATOM     12  C   UNL d   1       6.588   3.627 -13.023  0.00  0.00     0.254 C 
ATOM     13  C   UNL d   1       7.855   4.295 -13.579  0.00  0.00     0.070 C 
ATOM     14  C   UNL d   1       8.820   5.074 -12.680  0.00  0.00     0.151 C 
ATOM     15  O   UNL d   1       9.963   5.514 -13.448  0.00  0.00    -0.331 OA
ENDROOT
BRANCH  11  16
ATOM     16  C   UNL d   1       5.836   1.314 -13.384  0.00  0.00     0.277 C 
BRANCH  16  17
ATOM     17  C   UNL d   1       5.231   0.276 -14.330  0.00  0.00     0.011 A 
ATOM     18  C   UNL d   1       3.858  -0.024 -14.234  0.00  0.00    -0.002 A 
ATOM     19  C   UNL d   1       3.301  -0.966 -15.138  0.00  0.00    -0.000 A 
ATOM     20  C   UNL d   1       4.065  -1.600 -16.123  0.00  0.00    -0.000 A 
ATOM     21  C   UNL d   1       5.433  -1.298 -16.200  0.00  0.00    -0.000 A 
ATOM     22  C   UNL d   1       6.027  -0.416 -15.287  0.00  0.00    -0.002 A 
ENDBRANCH  16  17
ENDBRANCH  11  16
TORSDOF 2
