REMARK  4 active torsions:
REMARK  status: ('A' for Active; 'I' for Inactive)
REMARK    1  A    between atoms: C_5  and  C_6 
REMARK    2  A    between atoms: C_10  and  C_11 
REMARK    3  A    between atoms: C_11  and  N_12 
REMARK    4  A    between atoms: N_15  and  C_16 
ROOT
ATOM      1  C   UNL d   1       8.055   6.388 -12.082  0.00  0.00     0.278 C 
ENDROOT
BRANCH   1   2
ATOM      2  C   UNL d   1       7.430   5.096 -12.555  0.00  0.00     0.030 A 
ATOM      3  C   UNL d   1       6.142   4.714 -12.137  0.00  0.00     0.097 A 
ATOM      4  N   UNL d   1       5.547   3.583 -12.561  0.00  0.00    -0.243 NA
ATOM      5  C   UNL d   1       6.229   2.794 -13.413  0.00  0.00     0.099 A 
ATOM      6  C   UNL d   1       7.533   3.072 -13.906  0.00  0.00     0.019 A 
ATOM      7  C   UNL d   1       8.130   4.263 -13.443  0.00  0.00     0.001 A 
BRANCH   6   8
ATOM      8  C   UNL d   1       8.258   2.123 -14.783  0.00  0.00     0.002 A 
ATOM      9  C   UNL d   1       9.672   2.021 -14.753  0.00  0.00     0.002 A 
ATOM     10  C   UNL d   1      10.356   1.128 -15.601  0.00  0.00     0.030 A 
ATOM     11  C   UNL d   1       9.636   0.309 -16.487  0.00  0.00     0.140 A 
ATOM     12  F   UNL d   1      10.287  -0.551 -17.304  0.00  0.00    -0.204 F 
ATOM     13  C   UNL d   1       8.233   0.384 -16.515  0.00  0.00     0.030 A 
ATOM     14  C   UNL d   1       7.552   1.279 -15.671  0.00  0.00     0.002 A 
ENDBRANCH   6   8
ENDBRANCH   1   2
BRANCH   1  15
ATOM     15  N   UNL d   1       9.166   6.205 -11.152  0.00  0.00     0.145 N 
ATOM     16  C   UNL d   1       9.830   7.506 -10.965  0.00  0.00     0.275 C 
ATOM     17  C   UNL d   1      11.038   7.338 -10.022  0.00  0.00     0.137 C 
ATOM     18  N   UNL d   1      10.602   6.799  -8.736  0.00  0.00    -0.343 N 
ATOM     19  C   UNL d   1       9.810   5.569  -8.829  0.00  0.00     0.137 C 
ATOM     20  C   UNL d   1       8.670   5.729  -9.846  0.00  0.00     0.275 C 
BRANCH  18  21
ATOM     21  C   UNL d   1      10.867   7.446  -7.510  0.00  0.00     0.084 A 
ATOM     22  C   UNL d   1      10.941   8.847  -7.420  0.00  0.00     0.155 A 
ATOM     23  C   UNL d   1      11.238   9.483  -6.189  0.00  0.00     0.031 A 
ATOM     24  F   UNL d   1      10.695   9.580  -8.514  0.00  0.00    -0.203 F 
ATOM     25  C   UNL d   1      11.438   8.725  -5.023  0.00  0.00     0.002 A 
ATOM     26  C   UNL d   1      11.341   7.324  -5.100  0.00  0.00     0.002 A 
ATOM     27  C   UNL d   1      11.068   6.697  -6.340  0.00  0.00     0.019 A 
ENDBRANCH  18  21
ENDBRANCH   1  15
TORSDOF 4
