REMARK  5 active torsions:
REMARK  status: ('A' for Active; 'I' for Inactive)
REMARK    1  A    between atoms: C_2  and  N_3 
REMARK    2  A    between atoms: C_7  and  C_8 
REMARK    3  A    between atoms: C_8  and  N_9 
REMARK       I    between atoms: N_9  and  C_10 
REMARK    4  A    between atoms: C_10  and  C_12 
REMARK    5  A    between atoms: C_20  and  O_21 
ROOT
ATOM      1  C   UNL d   1       8.509   4.111 -12.916  0.00  0.00     0.078 A 
ATOM      2  C   UNL d   1       7.161   4.544 -12.646  0.00  0.00    -0.019 A 
ATOM      3  C   UNL d   1       6.790   5.783 -11.780  0.00  0.00     0.031 C 
ATOM      4  C   UNL d   1       6.128   3.815 -13.261  0.00  0.00    -0.023 A 
ATOM      5  C   UNL d   1       4.737   4.267 -13.084  0.00  0.00     0.031 C 
ATOM      6  C   UNL d   1       6.378   2.703 -14.072  0.00  0.00     0.025 A 
ATOM      7  C   UNL d   1       7.692   2.317 -14.358  0.00  0.00     0.153 A 
ATOM      8  O   UNL d   1       7.895   1.209 -15.107  0.00  0.00    -0.188 OA
ATOM      9  C   UNL d   1       8.757   3.035 -13.803  0.00  0.00     0.124 A 
ENDROOT
BRANCH   1  10
ATOM     10  C   UNL d   1       9.658   4.870 -12.381  0.00  0.00     0.277 C 
ATOM     11  N   UNL d   1       9.538   5.216 -11.090  0.00  0.00    -0.232 NA
ATOM     12  O   UNL d   1      10.562   5.178 -13.146  0.00  0.00    -0.266 OA
BRANCH  11  13
ATOM     13  C   UNL d   1       9.903   6.537 -10.605  0.00  0.00     0.162 C 
BRANCH  13  14
ATOM     14  C   UNL d   1      10.254   6.586  -9.103  0.00  0.00     0.243 C 
ATOM     15  N   UNL d   1      10.690   7.904  -8.624  0.00  0.00     0.137 N 
ATOM     16  C   UNL d   1      10.690   7.735  -7.170  0.00  0.00     0.250 C 
ATOM     17  C   UNL d   1       9.386   6.994  -6.875  0.00  0.00     0.037 C 
ATOM     18  C   UNL d   1       9.107   6.225  -8.164  0.00  0.00     0.037 C 
BRANCH  15  19
ATOM     19  C   UNL d   1      12.010   8.284  -9.121  0.00  0.00     0.250 C 
ATOM     20  C   UNL d   1      11.930   9.110 -10.418  0.00  0.00     0.037 C 
ENDBRANCH  15  19
ENDBRANCH  13  14
ENDBRANCH  11  13
ENDBRANCH   1  10
BRANCH   9  21
ATOM     21  O   UNL d   1      10.046   2.623 -14.062  0.00  0.00    -0.326 OA
ATOM     22  C   UNL d   1      10.495   2.936 -15.368  0.00  0.00     0.181 C 
ENDBRANCH   9  21
TORSDOF 5
