REMARK  8 active torsions:
REMARK  status: ('A' for Active; 'I' for Inactive)
REMARK    1  A    between atoms: S_2  and  N_4 
REMARK    2  A    between atoms: S_2  and  C_25 
REMARK    3  A    between atoms: N_4  and  C_5 
REMARK    4  A    between atoms: N_8  and  C_9 
REMARK    5  A    between atoms: C_9  and  C_10 
REMARK    6  A    between atoms: C_10  and  O_11 
REMARK    7  A    between atoms: O_11  and  C_12 
REMARK    8  A    between atoms: C_17  and  C_18 
ROOT
ATOM      1  C   UNL d   1       9.875   6.183  -8.681  0.00  0.00     0.151 C 
ATOM      2  C   UNL d   1       8.843   5.172  -8.182  0.00  0.00     0.063 C 
ATOM      3  C   UNL d   1       8.313   4.553  -9.439  0.00  0.00     0.253 C 
ATOM      4  N   UNL d   1       9.426   4.697 -10.361  0.00  0.00     0.142 N 
ATOM      5  C   UNL d   1       9.828   6.100 -10.187  0.00  0.00     0.275 C 
ENDROOT
BRANCH   4   6
ATOM      6  C   UNL d   1       9.022   4.435 -11.730  0.00  0.00     0.283 C 
BRANCH   6   7
ATOM      7  C   UNL d   1      10.188   4.498 -12.717  0.00  0.00     0.184 C 
BRANCH   7   8
ATOM      8  O   UNL d   1       9.707   4.201 -14.015  0.00  0.00    -0.329 OA
BRANCH   8   9
ATOM      9  C   UNL d   1      10.659   3.920 -14.966  0.00  0.00     0.094 A 
ATOM     10  C   UNL d   1      10.378   2.918 -15.928  0.00  0.00     0.022 A 
ATOM     11  C   UNL d   1      11.334   2.659 -16.935  0.00  0.00     0.002 A 
ATOM     12  C   UNL d   1      12.549   3.367 -16.991  0.00  0.00     0.000 A 
ATOM     13  C   UNL d   1      12.828   4.348 -16.028  0.00  0.00     0.002 A 
ATOM     14  C   UNL d   1      11.891   4.618 -15.018  0.00  0.00     0.024 A 
BRANCH  10  15
ATOM     15  C   UNL d   1       9.124   2.138 -15.889  0.00  0.00     0.002 A 
ATOM     16  C   UNL d   1       8.666   1.550 -14.688  0.00  0.00     0.000 A 
ATOM     17  C   UNL d   1       7.482   0.789 -14.658  0.00  0.00     0.000 A 
ATOM     18  C   UNL d   1       6.739   0.604 -15.837  0.00  0.00     0.000 A 
ATOM     19  C   UNL d   1       7.178   1.187 -17.040  0.00  0.00     0.000 A 
ATOM     20  C   UNL d   1       8.362   1.949 -17.063  0.00  0.00     0.000 A 
ENDBRANCH  10  15
ENDBRANCH   8   9
ENDBRANCH   7   8
ENDBRANCH   6   7
ENDBRANCH   4   6
BRANCH   1  21
ATOM     21  N   UNL d   1       9.531   7.500  -8.171  0.00  0.00    -0.185 NA
BRANCH  21  22
ATOM     22  S   UNL d   1      10.740   8.590  -7.667  0.00  0.00     0.281 S 
ATOM     23  O   UNL d   1      11.826   8.543  -8.686  0.00  0.00    -0.199 OA
ATOM     24  O   UNL d   1      10.090   9.787  -7.205  0.00  0.00    -0.199 OA
BRANCH  22  25
ATOM     25  C   UNL d   1      11.377   8.033  -6.148  0.00  0.00     0.105 A 
ATOM     26  C   UNL d   1      11.091   6.746  -5.729  0.00  0.00     0.015 A 
ATOM     27  C   UNL d   1      11.475   6.388  -4.434  0.00  0.00     0.030 A 
ATOM     28  C   UNL d   1      12.084   7.316  -3.550  0.00  0.00     0.140 A 
ATOM     29  C   UNL d   1      12.286   8.649  -3.950  0.00  0.00     0.030 A 
ATOM     30  F   UNL d   1      12.480   6.892  -2.326  0.00  0.00    -0.204 F 
ATOM     31  C   UNL d   1      11.926   9.023  -5.264  0.00  0.00     0.015 A 
ENDBRANCH  22  25
ENDBRANCH  21  22
ENDBRANCH   1  21
TORSDOF 8
