REMARK  10 active torsions:
REMARK  status: ('A' for Active; 'I' for Inactive)
REMARK    1  A    between atoms: C_2  and  C_3 
REMARK       I    between atoms: C_2  and  N_15 
REMARK    2  A    between atoms: C_4  and  C_5 
REMARK    3  A    between atoms: N_15  and  C_16 
REMARK    4  A    between atoms: C_16  and  C_17 
REMARK    5  A    between atoms: C_17  and  C_18 
REMARK    6  A    between atoms: C_18  and  C_19 
REMARK    7  A    between atoms: C_19  and  N_20 
REMARK    8  A    between atoms: C_26  and  O_27 
REMARK    9  A    between atoms: O_27  and  S_28 
REMARK   10  A    between atoms: S_28  and  C_31 
ROOT
ATOM      1  C   UNL d   1       9.537   4.920 -16.898  0.00  0.00     0.251 C 
ENDROOT
BRANCH   1   2
ATOM      2  C   UNL d   1       9.663   3.745 -15.907  0.00  0.00     0.037 C 
BRANCH   2   3
ATOM      3  C   UNL d   1       8.397   3.584 -15.085  0.00  0.00     0.029 C 
BRANCH   3   4
ATOM      4  C   UNL d   1       8.328   2.612 -13.968  0.00  0.00     0.129 C 
BRANCH   4   5
ATOM      5  N   UNL d   1       6.898   2.603 -13.607  0.00  0.00    -0.234 NA
ATOM      6  C   UNL d   1       6.312   3.383 -12.637  0.00  0.00     0.275 C 
ATOM      7  O   UNL d   1       5.248   3.072 -12.162  0.00  0.00    -0.266 OA
BRANCH   6   8
ATOM      8  C   UNL d   1       7.190   4.469 -12.183  0.00  0.00     0.062 C 
ATOM      9  C   UNL d   1       7.599   4.619 -10.894  0.00  0.00     0.005 C 
BRANCH   9  10
ATOM     10  C   UNL d   1       8.505   5.690 -10.429  0.00  0.00     0.000 A 
ATOM     11  C   UNL d   1       8.787   5.805  -9.049  0.00  0.00     0.000 A 
ATOM     12  C   UNL d   1       9.590   6.854  -8.537  0.00  0.00     0.000 A 
ATOM     13  C   UNL d   1      10.131   7.819  -9.424  0.00  0.00     0.000 A 
ATOM     14  C   UNL d   1       9.842   6.956  -7.154  0.00  0.00     0.000 A 
ATOM     15  C   UNL d   1       9.858   7.729 -10.798  0.00  0.00     0.000 A 
ATOM     16  C   UNL d   1      10.935   8.863  -8.918  0.00  0.00     0.000 A 
ATOM     17  C   UNL d   1       9.059   6.672 -11.298  0.00  0.00     0.000 A 
ATOM     18  C   UNL d   1      11.195   8.950  -7.535  0.00  0.00     0.000 A 
ATOM     19  C   UNL d   1      10.649   7.997  -6.653  0.00  0.00     0.000 A 
ENDBRANCH   9  10
ENDBRANCH   6   8
ENDBRANCH   4   5
ENDBRANCH   3   4
ENDBRANCH   2   3
ENDBRANCH   1   2
BRANCH   1  20
ATOM     20  N   UNL d   1      10.688   4.950 -17.792  0.00  0.00     0.142 N 
ATOM     21  C   UNL d   1      11.629   5.982 -17.349  0.00  0.00     0.277 C 
ATOM     22  C   UNL d   1      12.813   6.174 -18.283  0.00  0.00     0.009 A 
ATOM     23  C   UNL d   1      12.719   5.759 -19.631  0.00  0.00    -0.022 A 
ATOM     24  C   UNL d   1      13.983   6.811 -17.822  0.00  0.00     0.023 A 
ATOM     25  C   UNL d   1      11.461   5.061 -20.115  0.00  0.00     0.061 C 
ATOM     26  C   UNL d   1      13.801   5.966 -20.509  0.00  0.00    -0.002 A 
ATOM     27  C   UNL d   1      10.270   5.256 -19.161  0.00  0.00     0.255 C 
ATOM     28  C   UNL d   1      14.969   6.596 -20.045  0.00  0.00     0.025 A 
ATOM     29  C   UNL d   1      15.065   7.014 -18.702  0.00  0.00     0.113 A 
BRANCH  29  30
ATOM     30  O   UNL d   1      16.203   7.632 -18.263  0.00  0.00    -0.224 OA
BRANCH  30  31
ATOM     31  S   UNL d   1      17.507   6.623 -17.899  0.00  0.00     0.374 S 
ATOM     32  O   UNL d   1      17.226   5.987 -16.582  0.00  0.00    -0.189 OA
ATOM     33  O   UNL d   1      17.795   5.812 -19.073  0.00  0.00    -0.189 OA
BRANCH  31  34
ATOM     34  C   UNL d   1      18.837   7.886 -17.694  0.00  0.00     0.524 C 
ATOM     35  F   UNL d   1      19.302   7.843 -16.449  0.00  0.00    -0.155 F 
ATOM     36  F   UNL d   1      19.818   7.613 -18.556  0.00  0.00    -0.155 F 
ATOM     37  F   UNL d   1      18.341   9.096 -17.952  0.00  0.00    -0.155 F 
ENDBRANCH  31  34
ENDBRANCH  30  31
ENDBRANCH  29  30
ENDBRANCH   1  20
TORSDOF 10
