REMARK  9 active torsions:
REMARK  status: ('A' for Active; 'I' for Inactive)
REMARK    1  A    between atoms: O_2  and  C_3 
REMARK    2  A    between atoms: C_9  and  C_10 
REMARK    3  A    between atoms: N_13  and  C_14 
REMARK    4  A    between atoms: C_14  and  C_15 
REMARK    5  A    between atoms: C_15  and  C_16 
REMARK    6  A    between atoms: C_16  and  C_17 
REMARK    7  A    between atoms: C_17  and  N_18 
REMARK    8  A    between atoms: C_22  and  C_23 
REMARK    9  A    between atoms: C_29  and  O_30 
ROOT
ATOM      1  C   UNL d   1       6.730   2.021 -14.478  0.00  0.00     0.027 C 
ENDROOT
BRANCH   1   2
ATOM      2  C   UNL d   1       7.762   3.070 -14.075  0.00  0.00     0.037 C 
BRANCH   2   3
ATOM      3  C   UNL d   1       7.070   4.259 -13.370  0.00  0.00     0.250 C 
BRANCH   3   4
ATOM      4  N   UNL d   1       8.039   5.151 -12.729  0.00  0.00     0.137 N 
ATOM      5  C   UNL d   1       8.413   4.553 -11.448  0.00  0.00     0.251 C 
ATOM      6  C   UNL d   1       9.488   5.391 -10.766  0.00  0.00     0.040 C 
ATOM      7  C   UNL d   1       9.043   6.806 -10.480  0.00  0.00     0.028 C 
ATOM      8  C   UNL d   1       8.550   7.383 -11.826  0.00  0.00     0.040 C 
ATOM      9  C   UNL d   1       7.479   6.478 -12.447  0.00  0.00     0.251 C 
BRANCH   7  10
ATOM     10  C   UNL d   1      10.123   7.656  -9.858  0.00  0.00    -0.002 A 
ATOM     11  C   UNL d   1      10.911   8.538 -10.509  0.00  0.00     0.095 A 
ATOM     12  N   UNL d   1      11.830   9.107  -9.658  0.00  0.00    -0.244 NA
ATOM     13  C   UNL d   1      11.581   8.671  -8.380  0.00  0.00     0.081 A 
ATOM     14  C   UNL d   1      12.192   8.998  -7.178  0.00  0.00     0.021 A 
ATOM     15  C   UNL d   1      10.506   7.733  -8.473  0.00  0.00     0.017 A 
ATOM     16  C   UNL d   1      11.723   8.405  -6.004  0.00  0.00     0.026 A 
ATOM     17  C   UNL d   1      10.696   7.421  -6.053  0.00  0.00     0.094 A 
ATOM     18  C   UNL d   1      10.079   7.120  -7.282  0.00  0.00     0.025 A 
BRANCH  17  19
ATOM     19  O   UNL d   1      10.297   6.715  -4.949  0.00  0.00    -0.328 OA
ATOM     20  C   UNL d   1      11.177   6.679  -3.826  0.00  0.00     0.181 C 
ENDBRANCH  17  19
ENDBRANCH   7  10
ENDBRANCH   3   4
ENDBRANCH   2   3
ENDBRANCH   1   2
BRANCH   1  21
ATOM     21  C   UNL d   1       7.195   1.049 -15.570  0.00  0.00     0.112 C 
BRANCH  21  22
ATOM     22  N   UNL d   1       6.139   0.097 -15.929  0.00  0.00    -0.270 N 
ATOM     23  C   UNL d   1       5.447   0.109 -17.075  0.00  0.00     0.243 A 
ATOM     24  C   UNL d   1       4.546  -1.123 -17.201  0.00  0.00     0.113 A 
ATOM     25  O   UNL d   1       5.506   0.986 -17.942  0.00  0.00    -0.272 OA
ATOM     26  C   UNL d   1       4.749  -1.818 -15.849  0.00  0.00     0.102 A 
ATOM     27  C   UNL d   1       5.765  -0.927 -15.151  0.00  0.00     0.240 A 
ATOM     28  O   UNL d   1       6.199  -1.174 -14.025  0.00  0.00    -0.272 OA
BRANCH  24  29
ATOM     29  C   UNL d   1       4.928  -1.995 -18.380  0.00  0.00     0.007 A 
ATOM     30  C   UNL d   1       6.167  -2.031 -19.136  0.00  0.00     0.018 A 
ATOM     31  C   UNL d   1       6.019  -3.021 -20.160  0.00  0.00     0.081 A 
ATOM     32  C   UNL d   1       7.414  -1.349 -19.099  0.00  0.00     0.025 A 
ATOM     33  N   UNL d   1       4.762  -3.560 -19.987  0.00  0.00    -0.244 NA
ATOM     34  C   UNL d   1       7.043  -3.302 -21.081  0.00  0.00     0.021 A 
ATOM     35  C   UNL d   1       4.109  -2.951 -18.932  0.00  0.00     0.095 A 
ATOM     36  C   UNL d   1       8.240  -2.571 -21.040  0.00  0.00     0.026 A 
ATOM     37  C   UNL d   1       8.417  -1.567 -20.054  0.00  0.00     0.094 A 
BRANCH  37  38
ATOM     38  O   UNL d   1       9.545  -0.793 -19.945  0.00  0.00    -0.328 OA
ATOM     39  C   UNL d   1      10.162  -0.387 -21.157  0.00  0.00     0.181 C 
ENDBRANCH  37  38
ENDBRANCH  24  29
ENDBRANCH  21  22
ENDBRANCH   1  21
TORSDOF 9
