REMARK  8 active torsions:
REMARK  status: ('A' for Active; 'I' for Inactive)
REMARK    1  A    between atoms: C_2  and  O_5 
REMARK    2  A    between atoms: O_5  and  C_6 
REMARK       I    between atoms: C_6  and  N_8 
REMARK    3  A    between atoms: C_12  and  C_13 
REMARK    4  A    between atoms: C_13  and  N_14 
REMARK    5  A    between atoms: N_14  and  C_15 
REMARK    6  A    between atoms: C_18  and  C_19 
REMARK    7  A    between atoms: C_18  and  S_27 
REMARK    8  A    between atoms: S_27  and  C_30 
ROOT
ATOM      1  C   UNL d   1       9.503   4.279 -16.991  0.00  0.00     0.257 C 
ATOM      2  C   UNL d   1       9.223   3.255 -18.092  0.00  0.00     0.037 C 
ATOM      3  C   UNL d   1       9.515   3.892 -19.466  0.00  0.00     0.022 C 
ATOM      4  C   UNL d   1      10.979   4.426 -19.611  0.00  0.00     0.120 C 
ATOM      5  C   UNL d   1      11.198   5.470 -18.470  0.00  0.00     0.022 C 
ATOM      6  C   UNL d   1      10.939   4.845 -17.083  0.00  0.00     0.037 C 
ENDROOT
BRANCH   4   7
ATOM      7  C   UNL d   1      12.019   3.269 -19.560  0.00  0.00     0.021 A 
ATOM      8  C   UNL d   1      13.414   3.520 -19.442  0.00  0.00     0.137 A 
ATOM      9  C   UNL d   1      14.339   2.454 -19.362  0.00  0.00     0.032 A 
ATOM     10  F   UNL d   1      13.904   4.781 -19.386  0.00  0.00    -0.204 F 
ATOM     11  C   UNL d   1      13.904   1.118 -19.384  0.00  0.00     0.032 A 
ATOM     12  C   UNL d   1      12.525   0.849 -19.494  0.00  0.00     0.140 A 
ATOM     13  C   UNL d   1      11.604   1.905 -19.626  0.00  0.00     0.029 A 
ATOM     14  F   UNL d   1      12.082  -0.431 -19.471  0.00  0.00    -0.204 F 
ENDBRANCH   4   7
BRANCH   4  15
ATOM     15  S   UNL d   1      11.171   5.258 -21.286  0.00  0.00     0.192 S 
ATOM     16  O   UNL d   1      12.494   5.914 -21.346  0.00  0.00    -0.221 OA
ATOM     17  O   UNL d   1      10.820   4.274 -22.322  0.00  0.00    -0.221 OA
BRANCH  15  18
ATOM     18  C   UNL d   1       9.947   6.563 -21.348  0.00  0.00     0.084 A 
ATOM     19  C   UNL d   1      10.353   7.905 -21.197  0.00  0.00     0.012 A 
ATOM     20  C   UNL d   1       9.394   8.930 -21.239  0.00  0.00     0.012 A 
ATOM     21  C   UNL d   1       8.030   8.620 -21.409  0.00  0.00     0.058 A 
ATOM     22  C   UNL d   1       7.624   7.274 -21.545  0.00  0.00     0.012 A 
ATOM     23 CL   UNL d   1       6.852   9.886 -21.452  0.00  0.00    -0.082 Cl
ATOM     24  C   UNL d   1       8.586   6.246 -21.541  0.00  0.00     0.012 A 
ENDBRANCH  15  18
ENDBRANCH   4  15
BRANCH   1  25
ATOM     25  N   UNL d   1       9.289   3.564 -15.752  0.00  0.00     0.339 N 
BRANCH  25  26
ATOM     26  C   UNL d   1       8.916   4.478 -14.698  0.00  0.00     0.312 C 
BRANCH  26  27
ATOM     27  C   UNL d   1       8.151   3.731 -13.576  0.00  0.00     0.122 C 
ATOM     28  N   UNL d   1       7.921   4.575 -12.393  0.00  0.00    -0.296 N 
ATOM     29  C   UNL d   1       8.915   5.271 -11.734  0.00  0.00     0.365 C 
ATOM     30  C   UNL d   1       6.547   4.464 -11.914  0.00  0.00     0.106 C 
ATOM     31  O   UNL d   1      10.056   5.431 -12.193  0.00  0.00    -0.238 OA
ATOM     32  C   UNL d   1       5.887   3.357 -12.729  0.00  0.00     0.026 C 
ATOM     33  C   UNL d   1       6.736   3.269 -13.996  0.00  0.00     0.026 C 
BRANCH  29  34
ATOM     34  O   UNL d   1       8.521   5.735 -10.505  0.00  0.00    -0.290 OA
BRANCH  34  35
ATOM     35  C   UNL d   1       9.444   5.998  -9.429  0.00  0.00     0.103 C 
ATOM     36  C   UNL d   1       8.699   6.654  -8.247  0.00  0.00     0.030 C 
ATOM     37  C   UNL d   1      10.626   6.934  -9.813  0.00  0.00     0.030 C 
ATOM     38  C   UNL d   1       9.914   4.644  -8.890  0.00  0.00     0.030 C 
ENDBRANCH  34  35
ENDBRANCH  29  34
ENDBRANCH  26  27
ENDBRANCH  25  26
ENDBRANCH   1  25
TORSDOF 8
