REMARK  7 active torsions:
REMARK  status: ('A' for Active; 'I' for Inactive)
REMARK    1  A    between atoms: C_5  and  N_6 
REMARK    2  A    between atoms: N_9  and  C_10 
REMARK    3  A    between atoms: C_10  and  C_11 
REMARK    4  A    between atoms: C_11  and  C_12 
REMARK    5  A    between atoms: C_12  and  C_13 
REMARK    6  A    between atoms: C_13  and  C_14 
REMARK    7  A    between atoms: C_14  and  C_15 
ROOT
ATOM      1  C   UNL d   1       9.319   5.286 -10.691  0.00  0.00     0.250 C 
ENDROOT
BRANCH   1   2
ATOM      2  N   UNL d   1       9.235   6.371  -9.712  0.00  0.00     0.141 N 
ATOM      3  C   UNL d   1       8.821   5.828  -8.412  0.00  0.00     0.274 C 
ATOM      4  C   UNL d   1       8.694   6.939  -7.344  0.00  0.00     0.137 C 
ATOM      5  N   UNL d   1       9.934   7.693  -7.274  0.00  0.00    -0.344 N 
ATOM      6  C   UNL d   1      10.430   8.214  -8.536  0.00  0.00     0.137 C 
ATOM      7  C   UNL d   1      10.521   7.064  -9.556  0.00  0.00     0.274 C 
BRANCH   5   8
ATOM      8  C   UNL d   1      10.580   7.956  -6.068  0.00  0.00     0.056 A 
ATOM      9  C   UNL d   1      11.097   6.895  -5.295  0.00  0.00     0.018 A 
ATOM     10  C   UNL d   1      11.758   7.150  -4.076  0.00  0.00     0.013 A 
ATOM     11  C   UNL d   1      11.875   8.470  -3.606  0.00  0.00     0.058 A 
ATOM     12 CL   UNL d   1      12.615   8.770  -2.077  0.00  0.00    -0.082 Cl
ATOM     13  C   UNL d   1      11.366   9.535  -4.377  0.00  0.00     0.013 A 
ATOM     14  C   UNL d   1      10.729   9.283  -5.611  0.00  0.00     0.018 A 
ENDBRANCH   5   8
ENDBRANCH   1   2
BRANCH   1  15
ATOM     15  C   UNL d   1       9.265   5.811 -12.142  0.00  0.00     0.035 C 
BRANCH  15  16
ATOM     16  C   UNL d   1       9.767   4.789 -13.182  0.00  0.00     0.003 C 
BRANCH  16  17
ATOM     17  C   UNL d   1       8.685   3.813 -13.670  0.00  0.00     0.006 C 
BRANCH  17  18
ATOM     18  C   UNL d   1       9.249   2.688 -14.557  0.00  0.00     0.048 C 
BRANCH  18  19
ATOM     19  C   UNL d   1       8.172   1.800 -15.113  0.00  0.00     0.081 A 
ATOM     20  N   UNL d   1       7.688   1.983 -16.325  0.00  0.00    -0.170 NA
ATOM     21  N   UNL d   1       6.738   1.001 -16.470  0.00  0.00    -0.229 N 
ATOM     22  C   UNL d   1       6.627   0.225 -15.302  0.00  0.00     0.084 A 
ATOM     23  C   UNL d   1       5.981   0.779 -17.578  0.00  0.00     0.100 A 
ATOM     24  C   UNL d   1       7.550   0.723 -14.429  0.00  0.00     0.036 A 
ATOM     25  C   UNL d   1       5.665  -0.820 -15.284  0.00  0.00     0.019 A 
ATOM     26  C   UNL d   1       4.898  -1.049 -16.404  0.00  0.00     0.003 A 
ATOM     27  C   UNL d   1       5.057  -0.244 -17.562  0.00  0.00     0.021 A 
ENDBRANCH  18  19
ENDBRANCH  17  18
ENDBRANCH  16  17
ENDBRANCH  15  16
ENDBRANCH   1  15
TORSDOF 7
