REMARK  3 active torsions:
REMARK  status: ('A' for Active; 'I' for Inactive)
REMARK    1  A    between atoms: C_2  and  C_3 
REMARK    2  A    between atoms: C_3  and  C_4 
REMARK    3  A    between atoms: C_9  and  O_10 
ROOT
ATOM      1  C   UNL d   1      11.033   7.524  -5.981  0.00  0.00    -0.016 A 
ATOM      2  C   UNL d   1      10.783   8.904  -6.134  0.00  0.00    -0.002 A 
ATOM      3  C   UNL d   1      11.058   9.781  -5.071  0.00  0.00     0.029 A 
ATOM      4  C   UNL d   1      11.602   9.271  -3.877  0.00  0.00     0.153 A 
ATOM      5  O   UNL d   1      11.859  10.098  -2.838  0.00  0.00    -0.188 OA
ATOM      6  C   UNL d   1      11.866   7.907  -3.708  0.00  0.00     0.119 A 
ATOM      7  C   UNL d   1      11.555   7.021  -4.768  0.00  0.00     0.022 A 
ENDROOT
BRANCH   1   8
ATOM      8  C   UNL d   1      10.741   6.578  -7.123  0.00  0.00     0.052 C 
BRANCH   8   9
ATOM      9  C   UNL d   1       9.261   6.381  -7.354  0.00  0.00    -0.021 C 
ATOM     10  C   UNL d   1       8.759   5.706  -8.394  0.00  0.00    -0.005 C 
ENDBRANCH   8   9
ENDBRANCH   1   8
BRANCH   6  11
ATOM     11  O   UNL d   1      12.416   7.541  -2.497  0.00  0.00    -0.326 OA
ATOM     12  C   UNL d   1      12.466   6.165  -2.206  0.00  0.00     0.181 C 
ENDBRANCH   6  11
TORSDOF 3
