REMARK  13 active torsions:
REMARK  status: ('A' for Active; 'I' for Inactive)
REMARK       I    between atoms: C_2  and  N_3 
REMARK    1  A    between atoms: C_2  and  C_24 
REMARK    2  A    between atoms: N_3  and  C_4 
REMARK    3  A    between atoms: C_4  and  C_5 
REMARK    4  A    between atoms: C_5  and  C_6 
REMARK    5  A    between atoms: C_6  and  C_7 
REMARK    6  A    between atoms: C_7  and  N_8 
REMARK    7  A    between atoms: N_11  and  C_12 
REMARK    8  A    between atoms: C_17  and  O_18 
REMARK    9  A    between atoms: O_18  and  C_19 
REMARK   10  A    between atoms: C_19  and  C_20 
REMARK   11  A    between atoms: C_27  and  O_28 
REMARK   12  A    between atoms: O_28  and  C_29 
REMARK   13  A    between atoms: C_29  and  C_30 
ROOT
ATOM      1  C   UNL d   1       9.690   3.971 -13.468  0.00  0.00     0.251 C 
ENDROOT
BRANCH   1   2
ATOM      2  C   UNL d   1       8.830   4.926 -12.623  0.00  0.00     0.037 C 
BRANCH   2   3
ATOM      3  C   UNL d   1       9.593   5.468 -11.415  0.00  0.00     0.029 C 
BRANCH   3   4
ATOM      4  C   UNL d   1       8.800   6.489 -10.611  0.00  0.00     0.129 C 
BRANCH   4   5
ATOM      5  N   UNL d   1       9.614   7.056  -9.540  0.00  0.00    -0.234 NA
ATOM      6  C   UNL d   1       9.808   6.483  -8.348  0.00  0.00     0.275 C 
ATOM      7  O   UNL d   1       9.393   5.356  -8.085  0.00  0.00    -0.266 OA
BRANCH   6   8
ATOM      8  C   UNL d   1      10.498   7.328  -7.314  0.00  0.00     0.058 A 
ATOM      9  C   UNL d   1      11.162   8.545  -7.643  0.00  0.00     0.007 A 
ATOM     10  C   UNL d   1      11.794   9.289  -6.622  0.00  0.00     0.024 A 
ATOM     11  C   UNL d   1      11.769   8.843  -5.285  0.00  0.00     0.094 A 
ATOM     12  C   UNL d   1      11.108   7.636  -4.957  0.00  0.00     0.024 A 
ATOM     13  C   UNL d   1      10.488   6.896  -5.973  0.00  0.00     0.007 A 
BRANCH  11  14
ATOM     14  O   UNL d   1      12.395   9.583  -4.309  0.00  0.00    -0.328 OA
BRANCH  14  15
ATOM     15  C   UNL d   1      11.777   9.610  -3.035  0.00  0.00     0.187 C 
BRANCH  15  16
ATOM     16  C   UNL d   1      12.417   8.640  -2.031  0.00  0.00     0.226 C 
ATOM     17  F   UNL d   1      12.287   7.366  -2.390  0.00  0.00    -0.232 F 
ENDBRANCH  15  16
ENDBRANCH  14  15
ENDBRANCH  11  14
ENDBRANCH   6   8
ENDBRANCH   4   5
ENDBRANCH   3   4
ENDBRANCH   2   3
ENDBRANCH   1   2
BRANCH   1  18
ATOM     18  N   UNL d   1       8.982   3.564 -14.681  0.00  0.00     0.141 N 
ATOM     19  C   UNL d   1       8.126   2.402 -14.405  0.00  0.00     0.274 C 
ATOM     20  C   UNL d   1       7.350   1.971 -15.665  0.00  0.00     0.137 C 
ATOM     21  N   UNL d   1       8.265   1.738 -16.777  0.00  0.00    -0.343 N 
ATOM     22  C   UNL d   1       9.207   2.827 -17.025  0.00  0.00     0.137 C 
ATOM     23  C   UNL d   1       9.948   3.198 -15.723  0.00  0.00     0.274 C 
BRANCH  21  24
ATOM     24  C   UNL d   1       8.288   0.515 -17.462  0.00  0.00     0.079 A 
ATOM     25  C   UNL d   1       9.512  -0.115 -17.816  0.00  0.00     0.110 A 
ATOM     26  C   UNL d   1       9.472  -1.340 -18.532  0.00  0.00     0.026 A 
ATOM     27  C   UNL d   1       8.250  -1.934 -18.887  0.00  0.00     0.002 A 
ATOM     28  C   UNL d   1       7.044  -1.318 -18.526  0.00  0.00     0.002 A 
ATOM     29  C   UNL d   1       7.063  -0.100 -17.817  0.00  0.00     0.019 A 
BRANCH  25  30
ATOM     30  O   UNL d   1      10.702   0.464 -17.422  0.00  0.00    -0.326 OA
BRANCH  30  31
ATOM     31  C   UNL d   1      11.874   0.239 -18.207  0.00  0.00     0.187 C 
BRANCH  31  32
ATOM     32  C   UNL d   1      12.611   1.569 -18.407  0.00  0.00     0.226 C 
ATOM     33  F   UNL d   1      13.723   1.367 -19.114  0.00  0.00    -0.232 F 
ENDBRANCH  31  32
ENDBRANCH  30  31
ENDBRANCH  25  30
ENDBRANCH  21  24
ENDBRANCH   1  18
TORSDOF 13
