REMARK  7 active torsions:
REMARK  status: ('A' for Active; 'I' for Inactive)
REMARK    1  A    between atoms: S_2  and  N_4 
REMARK    2  A    between atoms: S_2  and  C_22 
REMARK    3  A    between atoms: N_4  and  C_5 
REMARK    4  A    between atoms: N_8  and  C_9 
REMARK    5  A    between atoms: C_9  and  C_10 
REMARK    6  A    between atoms: C_10  and  C_11 
REMARK    7  A    between atoms: C_11  and  C_12 
ROOT
ATOM      1  C   UNL d   1       9.617   4.176 -12.971  0.00  0.00     0.151 C 
ATOM      2  C   UNL d   1       9.380   5.589 -13.485  0.00  0.00     0.063 C 
ATOM      3  C   UNL d   1       8.962   6.391 -12.244  0.00  0.00     0.252 C 
ATOM      4  N   UNL d   1       9.530   5.642 -11.136  0.00  0.00     0.139 N 
ATOM      5  C   UNL d   1       9.274   4.261 -11.489  0.00  0.00     0.275 C 
ENDROOT
BRANCH   1   6
ATOM      6  N   UNL d   1       8.754   3.201 -13.634  0.00  0.00    -0.185 NA
BRANCH   6   7
ATOM      7  S   UNL d   1       9.253   2.562 -15.146  0.00  0.00     0.281 S 
ATOM      8  O   UNL d   1       9.466   3.719 -16.030  0.00  0.00    -0.199 OA
ATOM      9  O   UNL d   1      10.355   1.631 -14.858  0.00  0.00    -0.199 OA
BRANCH   7  10
ATOM     10  C   UNL d   1       7.824   1.590 -15.697  0.00  0.00     0.105 A 
ATOM     11  C   UNL d   1       7.537   1.336 -17.070  0.00  0.00     0.012 A 
ATOM     12  C   UNL d   1       6.389   0.554 -17.396  0.00  0.00     0.001 A 
ATOM     13  C   UNL d   1       8.351   1.810 -18.132  0.00  0.00     0.001 A 
ATOM     14  C   UNL d   1       5.564   0.026 -16.381  0.00  0.00     0.000 A 
ATOM     15  C   UNL d   1       6.061   0.290 -18.743  0.00  0.00     0.000 A 
ATOM     16  C   UNL d   1       5.862   0.280 -15.032  0.00  0.00     0.001 A 
ATOM     17  C   UNL d   1       6.986   1.050 -14.694  0.00  0.00     0.013 A 
ATOM     18  C   UNL d   1       6.867   0.790 -19.781  0.00  0.00     0.000 A 
ATOM     19  C   UNL d   1       8.010   1.551 -19.474  0.00  0.00     0.000 A 
ENDBRANCH   7  10
ENDBRANCH   6   7
ENDBRANCH   1   6
BRANCH   4  20
ATOM     20  C   UNL d   1       8.971   5.993  -9.831  0.00  0.00     0.251 C 
BRANCH  20  21
ATOM     21  C   UNL d   1       9.854   7.045  -9.141  0.00  0.00     0.042 C 
BRANCH  21  22
ATOM     22  C   UNL d   1       9.371   7.369  -7.715  0.00  0.00     0.050 C 
BRANCH  22  23
ATOM     23  C   UNL d   1      10.352   8.214  -6.939  0.00  0.00     0.088 A 
ATOM     24  C   UNL d   1      11.050   7.963  -5.734  0.00  0.00     0.041 A 
ATOM     25  C   UNL d   1      11.826   9.076  -5.404  0.00  0.00     0.126 A 
ATOM     26  C   UNL d   1      11.060   6.841  -4.886  0.00  0.00     0.003 A 
ATOM     27  O   UNL d   1      11.586   9.992  -6.415  0.00  0.00    -0.211 OA
ATOM     28  C   UNL d   1      12.636   9.130  -4.260  0.00  0.00     0.027 A 
ATOM     29  N   UNL d   1      10.663   9.445  -7.346  0.00  0.00    -0.131 NA
ATOM     30  C   UNL d   1      12.640   8.008  -3.404  0.00  0.00     0.002 A 
ATOM     31  C   UNL d   1      11.862   6.867  -3.716  0.00  0.00     0.000 A 
ENDBRANCH  22  23
ENDBRANCH  21  22
ENDBRANCH  20  21
ENDBRANCH   4  20
TORSDOF 7
