REMARK  4 active torsions:
REMARK  status: ('A' for Active; 'I' for Inactive)
REMARK    1  A    between atoms: C_11  and  C_12 
REMARK    2  A    between atoms: C_12  and  C_13 
REMARK    3  A    between atoms: C_13  and  N_14 
REMARK    4  A    between atoms: N_18  and  C_19 
ROOT
ATOM      1  N   UNL d   1       8.351   4.324 -12.743  0.00  0.00     0.139 N 
ATOM      2  C   UNL d   1       7.564   4.262 -13.971  0.00  0.00     0.252 C 
ATOM      3  C   UNL d   1       7.744   2.896 -14.664  0.00  0.00     0.059 C 
ATOM      4  C   UNL d   1       8.915   2.820 -15.671  0.00  0.00     0.105 C 
ATOM      5  N   UNL d   1      10.205   3.240 -15.146  0.00  0.00    -0.332 N 
ATOM      6  C   UNL d   1      10.395   3.267 -13.714  0.00  0.00     0.138 C 
ATOM      7  C   UNL d   1       9.778   4.507 -13.075  0.00  0.00     0.274 C 
ENDROOT
BRANCH   1   8
ATOM      8  C   UNL d   1       7.845   5.454 -11.951  0.00  0.00     0.251 C 
BRANCH   8   9
ATOM      9  C   UNL d   1       8.107   5.301 -10.440  0.00  0.00     0.043 C 
BRANCH   9  10
ATOM     10  C   UNL d   1       9.526   5.663  -9.967  0.00  0.00     0.068 A 
ATOM     11  C   UNL d   1       9.863   7.161 -10.133  0.00  0.00     0.173 A 
ATOM     12  O   UNL d   1       9.822   7.799 -11.184  0.00  0.00    -0.291 OA
ATOM     13  C   UNL d   1      10.295   7.636  -8.844  0.00  0.00     0.031 A 
ATOM     14  C   UNL d   1      10.283   6.604  -7.914  0.00  0.00    -0.017 A 
ATOM     15  C   UNL d   1      10.666   8.939  -8.508  0.00  0.00     0.005 A 
ATOM     16  C   UNL d   1      10.672   6.817  -6.593  0.00  0.00     0.025 A 
ATOM     17  C   UNL d   1       9.806   5.306  -8.499  0.00  0.00     0.034 A 
ATOM     18  C   UNL d   1      11.039   8.123  -6.222  0.00  0.00     0.140 A 
ATOM     19  C   UNL d   1      11.030   9.176  -7.169  0.00  0.00     0.030 A 
ATOM     20  F   UNL d   1      11.401   8.369  -4.941  0.00  0.00    -0.204 F 
ENDBRANCH   9  10
ENDBRANCH   8   9
ENDBRANCH   1   8
BRANCH   5  21
ATOM     21  C   UNL d   1      11.165   3.839 -15.994  0.00  0.00     0.140 A 
ATOM     22  N   UNL d   1      12.158   4.578 -15.433  0.00  0.00    -0.227 NA
ATOM     23  C   UNL d   1      13.101   5.103 -16.237  0.00  0.00     0.101 A 
ATOM     24  C   UNL d   1      13.113   4.930 -17.632  0.00  0.00     0.021 A 
ATOM     25  C   UNL d   1      12.080   4.180 -18.215  0.00  0.00     0.005 A 
ATOM     26  C   UNL d   1      11.097   3.632 -17.388  0.00  0.00     0.037 A 
ENDBRANCH   5  21
TORSDOF 4
