REMARK  3 active torsions:
REMARK  status: ('A' for Active; 'I' for Inactive)
REMARK    1  A    between atoms: C_8  and  C_9 
REMARK    2  A    between atoms: C_9  and  N_10 
REMARK    3  A    between atoms: N_13  and  C_14 
ROOT
ATOM      1  C   UNL d   1       7.210   4.987 -13.130  0.00  0.00     0.295 C 
ENDROOT
BRANCH   1   2
ATOM      2  C   UNL d   1       7.101   3.560 -13.562  0.00  0.00     0.091 A 
ATOM      3  C   UNL d   1       5.996   2.755 -13.464  0.00  0.00     0.075 A 
ATOM      4  N   UNL d   1       6.221   1.502 -14.001  0.00  0.00    -0.231 NA
ATOM      5  C   UNL d   1       4.678   3.073 -12.840  0.00  0.00     0.053 C 
ATOM      6  C   UNL d   1       7.481   1.510 -14.407  0.00  0.00     0.149 A 
ATOM      7  C   UNL d   1       8.265   0.496 -15.003  0.00  0.00     0.052 A 
ATOM      8  N   UNL d   1       8.098   2.779 -14.153  0.00  0.00    -0.281 N 
ATOM      9  C   UNL d   1       9.557   0.815 -15.304  0.00  0.00     0.064 A 
ATOM     10  C   UNL d   1      10.480  -0.190 -15.934  0.00  0.00     0.052 C 
ATOM     11  N   UNL d   1      10.136   2.030 -15.056  0.00  0.00    -0.236 NA
ATOM     12  C   UNL d   1       9.424   2.958 -14.498  0.00  0.00     0.125 A 
ATOM     13  C   UNL d   1      10.183   4.247 -14.232  0.00  0.00     0.072 C 
ENDBRANCH   1   2
BRANCH   1  14
ATOM     14  N   UNL d   1       8.292   5.304 -12.233  0.00  0.00     0.147 N 
ATOM     15  C   UNL d   1       8.082   4.699 -10.944  0.00  0.00     0.275 C 
ATOM     16  C   UNL d   1       9.339   4.897 -10.074  0.00  0.00     0.138 C 
ATOM     17  N   UNL d   1       9.576   6.340  -9.951  0.00  0.00    -0.330 N 
ATOM     18  C   UNL d   1       9.684   7.040 -11.217  0.00  0.00     0.138 C 
ATOM     19  C   UNL d   1       8.450   6.742 -12.090  0.00  0.00     0.275 C 
BRANCH  17  20
ATOM     20  C   UNL d   1       9.764   7.012  -8.738  0.00  0.00     0.140 A 
ATOM     21  N   UNL d   1      10.377   8.227  -8.754  0.00  0.00    -0.227 NA
ATOM     22  C   UNL d   1      10.517   8.897  -7.588  0.00  0.00     0.101 A 
ATOM     23  C   UNL d   1      10.083   8.376  -6.354  0.00  0.00     0.021 A 
ATOM     24  C   UNL d   1       9.462   7.115  -6.343  0.00  0.00     0.005 A 
ATOM     25  C   UNL d   1       9.287   6.426  -7.552  0.00  0.00     0.037 A 
ENDBRANCH  17  20
ENDBRANCH   1  14
TORSDOF 3
