REMARK  7 active torsions:
REMARK  status: ('A' for Active; 'I' for Inactive)
REMARK    1  A    between atoms: C_7  and  N_8 
REMARK    2  A    between atoms: N_13  and  C_14 
REMARK    3  A    between atoms: C_14  and  C_15 
REMARK    4  A    between atoms: C_15  and  C_16 
REMARK    5  A    between atoms: C_16  and  S_17 
REMARK    6  A    between atoms: S_17  and  C_18 
REMARK    7  A    between atoms: C_21  and  C_22 
ROOT
ATOM      1  C   UNL d   1      10.826   4.958 -18.886  0.00  0.00     0.251 C 
ENDROOT
BRANCH   1   2
ATOM      2  N   UNL d   1      10.915   4.636 -17.464  0.00  0.00     0.138 N 
ATOM      3  C   UNL d   1      12.226   4.863 -16.842  0.00  0.00     0.252 C 
ATOM      4  C   UNL d   1      11.937   4.844 -15.339  0.00  0.00     0.052 C 
ATOM      5  C   UNL d   1      12.188   3.524 -14.633  0.00  0.00     0.021 C 
ATOM      6  C   UNL d   1      10.446   5.089 -15.207  0.00  0.00     0.097 C 
ATOM      7  C   UNL d   1      10.934   3.309 -13.795  0.00  0.00     0.077 C 
ATOM      8  N   UNL d   1       9.876   3.902 -14.584  0.00  0.00    -0.252 NA
ATOM      9  C   UNL d   1       9.940   5.323 -16.635  0.00  0.00     0.266 C 
BRANCH   8  10
ATOM     10  C   UNL d   1       8.656   4.046 -13.897  0.00  0.00     0.032 A 
ATOM     11  C   UNL d   1       7.598   3.143 -14.166  0.00  0.00    -0.011 A 
ATOM     12  C   UNL d   1       7.766   2.023 -15.180  0.00  0.00     0.032 C 
ATOM     13  C   UNL d   1       6.368   3.282 -13.486  0.00  0.00    -0.003 A 
ATOM     14  C   UNL d   1       6.192   4.302 -12.532  0.00  0.00    -0.000 A 
ATOM     15  C   UNL d   1       7.245   5.191 -12.251  0.00  0.00     0.001 A 
ATOM     16  C   UNL d   1       8.472   5.062 -12.928  0.00  0.00     0.011 A 
ENDBRANCH   8  10
ENDBRANCH   1   2
BRANCH   1  17
ATOM     17  C   UNL d   1      11.522   6.282 -19.232  0.00  0.00     0.047 C 
BRANCH  17  18
ATOM     18  C   UNL d   1      11.527   6.654 -20.724  0.00  0.00     0.067 C 
BRANCH  18  19
ATOM     19  S   UNL d   1      12.417   8.208 -21.049  0.00  0.00    -0.075 SA
BRANCH  19  20
ATOM     20  C   UNL d   1      14.028   7.777 -20.446  0.00  0.00     0.193 A 
ATOM     21  N   UNL d   1      14.873   8.673 -19.880  0.00  0.00    -0.287 N 
ATOM     22  C   UNL d   1      15.893   7.877 -19.465  0.00  0.00     0.186 A 
ATOM     23  C   UNL d   1      14.694  10.119 -19.745  0.00  0.00     0.134 C 
ATOM     24  N   UNL d   1      15.703   6.595 -19.794  0.00  0.00    -0.127 NA
ATOM     25  N   UNL d   1      14.494   6.535 -20.462  0.00  0.00    -0.122 NA
BRANCH  22  26
ATOM     26  C   UNL d   1      17.106   8.283 -18.737  0.00  0.00     0.136 A 
ATOM     27  N   UNL d   1      17.408   9.600 -18.651  0.00  0.00    -0.238 NA
ATOM     28  C   UNL d   1      18.536   9.933 -17.991  0.00  0.00     0.120 A 
ATOM     29  C   UNL d   1      19.359   8.960 -17.395  0.00  0.00     0.120 A 
ATOM     30  N   UNL d   1      19.065   7.643 -17.460  0.00  0.00    -0.239 NA
ATOM     31  C   UNL d   1      17.944   7.312 -18.135  0.00  0.00     0.121 A 
ENDBRANCH  22  26
ENDBRANCH  19  20
ENDBRANCH  18  19
ENDBRANCH  17  18
ENDBRANCH   1  17
TORSDOF 7
