REMARK  7 active torsions:
REMARK  status: ('A' for Active; 'I' for Inactive)
REMARK    1  A    between atoms: C_3  and  S_4 
REMARK    2  A    between atoms: S_4  and  C_5 
REMARK    3  A    between atoms: C_5  and  C_6 
REMARK    4  A    between atoms: C_6  and  C_7 
REMARK    5  A    between atoms: C_7  and  N_8 
REMARK    6  A    between atoms: N_13  and  C_14 
REMARK    7  A    between atoms: C_26  and  C_27 
ROOT
ATOM      1  N   UNL d   1      10.246   3.902 -17.868  0.00  0.00     0.138 N 
ATOM      2  C   UNL d   1      11.541   3.298 -17.509  0.00  0.00     0.252 C 
ATOM      3  C   UNL d   1      11.280   2.600 -16.178  0.00  0.00     0.052 C 
ATOM      4  C   UNL d   1      11.428   3.477 -14.926  0.00  0.00     0.021 C 
ATOM      5  C   UNL d   1      10.242   3.032 -14.068  0.00  0.00     0.077 C 
ATOM      6  N   UNL d   1       9.191   2.721 -15.025  0.00  0.00    -0.248 NA
ATOM      7  C   UNL d   1       9.813   2.227 -16.249  0.00  0.00     0.097 C 
ATOM      8  C   UNL d   1       9.256   2.907 -17.493  0.00  0.00     0.266 C 
ENDROOT
BRANCH   1   9
ATOM      9  C   UNL d   1      10.065   4.261 -19.274  0.00  0.00     0.251 C 
BRANCH   9  10
ATOM     10  C   UNL d   1      11.125   5.278 -19.715  0.00  0.00     0.047 C 
BRANCH  10  11
ATOM     11  C   UNL d   1      10.877   6.708 -19.168  0.00  0.00     0.067 C 
BRANCH  11  12
ATOM     12  S   UNL d   1      11.907   7.970 -19.991  0.00  0.00    -0.075 SA
BRANCH  12  13
ATOM     13  C   UNL d   1      13.507   7.596 -19.371  0.00  0.00     0.193 A 
ATOM     14  N   UNL d   1      14.498   8.514 -19.295  0.00  0.00    -0.287 N 
ATOM     15  C   UNL d   1      14.454   9.930 -19.638  0.00  0.00     0.134 C 
ATOM     16  C   UNL d   1      15.527   7.754 -18.815  0.00  0.00     0.186 A 
ATOM     17  N   UNL d   1      15.193   6.479 -18.619  0.00  0.00    -0.127 NA
ATOM     18  N   UNL d   1      13.861   6.377 -18.961  0.00  0.00    -0.122 NA
BRANCH  16  19
ATOM     19  C   UNL d   1      16.886   8.210 -18.511  0.00  0.00     0.136 A 
ATOM     20  N   UNL d   1      17.206   9.510 -18.641  0.00  0.00    -0.238 NA
ATOM     21  C   UNL d   1      18.461   9.882 -18.319  0.00  0.00     0.120 A 
ATOM     22  C   UNL d   1      19.414   8.940 -17.858  0.00  0.00     0.120 A 
ATOM     23  N   UNL d   1      19.112   7.630 -17.709  0.00  0.00    -0.239 NA
ATOM     24  C   UNL d   1      17.858   7.274 -18.044  0.00  0.00     0.121 A 
ENDBRANCH  16  19
ENDBRANCH  12  13
ENDBRANCH  11  12
ENDBRANCH  10  11
ENDBRANCH   9  10
ENDBRANCH   1   9
BRANCH   6  25
ATOM     25  C   UNL d   1       8.074   2.043 -14.520  0.00  0.00     0.092 A 
ATOM     26  C   UNL d   1       6.980   2.785 -14.035  0.00  0.00     0.152 A 
ATOM     27  C   UNL d   1       5.858   2.135 -13.488  0.00  0.00     0.031 A 
ATOM     28  F   UNL d   1       7.025   4.137 -14.040  0.00  0.00    -0.203 F 
ATOM     29  C   UNL d   1       5.794   0.730 -13.454  0.00  0.00     0.005 A 
ATOM     30  C   UNL d   1       6.888  -0.017 -13.935  0.00  0.00     0.031 A 
ATOM     31  C   UNL d   1       8.034   0.632 -14.445  0.00  0.00     0.152 A 
ATOM     32  F   UNL d   1       9.117  -0.077 -14.840  0.00  0.00    -0.203 F 
ENDBRANCH   6  25
TORSDOF 7
