REMARK  3 active torsions:
REMARK  status: ('A' for Active; 'I' for Inactive)
REMARK    1  A    between atoms: C_2  and  C_3 
REMARK    2  A    between atoms: N_12  and  C_13 
REMARK    3  A    between atoms: C_13  and  C_14 
ROOT
ATOM      1  O   UNL d   1      12.571   7.989  -8.597  0.00  0.00    -0.221 OA
ATOM      2  C   UNL d   1      11.289   7.880  -8.009  0.00  0.00     0.149 C 
ATOM      3  C   UNL d   1      10.430   9.016  -8.572  0.00  0.00     0.070 C 
ATOM      4  C   UNL d   1      10.113   8.824 -10.051  0.00  0.00     0.254 C 
ATOM      5  N   UNL d   1       9.468   7.554 -10.336  0.00  0.00     0.144 N 
ATOM      6  C   UNL d   1      10.336   6.472  -9.935  0.00  0.00     0.254 C 
ATOM      7  C   UNL d   1      10.591   6.562  -8.430  0.00  0.00     0.070 C 
ENDROOT
BRANCH   5   8
ATOM      8  C   UNL d   1       9.108   7.531 -11.759  0.00  0.00     0.301 C 
BRANCH   8   9
ATOM      9  C   UNL d   1       8.321   6.322 -12.130  0.00  0.00     0.111 A 
ATOM     10  O   UNL d   1       8.876   5.463 -13.047  0.00  0.00    -0.309 OA
ATOM     11  C   UNL d   1       7.968   4.439 -13.212  0.00  0.00     0.100 A 
ATOM     12  C   UNL d   1       6.849   4.657 -12.380  0.00  0.00     0.025 A 
ATOM     13  C   UNL d   1       8.079   3.319 -14.061  0.00  0.00     0.025 A 
ATOM     14  C   UNL d   1       7.113   5.874 -11.671  0.00  0.00     0.024 A 
ATOM     15  C   UNL d   1       5.815   3.703 -12.418  0.00  0.00     0.002 A 
ATOM     16  C   UNL d   1       5.884   2.577 -13.273  0.00  0.00     0.000 A 
ATOM     17  C   UNL d   1       7.018   2.392 -14.096  0.00  0.00     0.002 A 
ENDBRANCH   8   9
ENDBRANCH   5   8
BRANCH   2  18
ATOM     18  C   UNL d   1      11.438   7.985  -6.480  0.00  0.00     0.005 A 
ATOM     19  C   UNL d   1      11.603   9.240  -5.835  0.00  0.00    -0.002 A 
ATOM     20  C   UNL d   1      11.781   9.320  -4.436  0.00  0.00     0.006 A 
ATOM     21  C   UNL d   1      11.857   8.139  -3.663  0.00  0.00     0.030 A 
ATOM     22  C   UNL d   1      11.639   6.892  -4.275  0.00  0.00     0.006 A 
ATOM     23  I   UNL d   1      12.325   8.236  -1.643  0.00  0.00    -0.043 I 
ATOM     24  C   UNL d   1      11.457   6.810  -5.668  0.00  0.00    -0.002 A 
ENDBRANCH   2  18
TORSDOF 3
