REMARK  5 active torsions:
REMARK  status: ('A' for Active; 'I' for Inactive)
REMARK    1  A    between atoms: O_2  and  C_3 
REMARK       I    between atoms: C_3  and  N_5 
REMARK    2  A    between atoms: C_11  and  N_12 
REMARK    3  A    between atoms: C_13  and  N_14 
REMARK    4  A    between atoms: C_19  and  O_20 
REMARK    5  A    between atoms: C_22  and  O_23 
ROOT
ATOM      1  N   UNL d   1       9.547   6.493 -11.281  0.00  0.00    -0.226 NA
ATOM      2  C   UNL d   1       9.538   6.426  -9.995  0.00  0.00     0.175 C 
ENDROOT
BRANCH   2   3
ATOM      3  N   UNL d   1      10.504   6.947  -9.157  0.00  0.00    -0.327 N 
ATOM      4  C   UNL d   1      10.742   6.358  -7.837  0.00  0.00     0.130 C 
ATOM      5  C   UNL d   1      10.924   7.331  -6.723  0.00  0.00    -0.002 A 
ATOM      6  C   UNL d   1      10.945   8.705  -6.938  0.00  0.00    -0.020 A 
ATOM      7  C   UNL d   1      11.210   6.786  -5.458  0.00  0.00     0.024 A 
ATOM      8  C   UNL d   1      10.784   9.214  -8.354  0.00  0.00     0.050 C 
ATOM      9  C   UNL d   1      11.122   9.571  -5.842  0.00  0.00     0.022 A 
ATOM     10  C   UNL d   1      11.172   8.216  -9.437  0.00  0.00     0.108 C 
ATOM     11  C   UNL d   1      11.352   9.041  -4.545  0.00  0.00     0.116 A 
ATOM     12  C   UNL d   1      11.440   7.638  -4.367  0.00  0.00     0.116 A 
BRANCH  11  13
ATOM     13  O   UNL d   1      11.352   9.909  -3.496  0.00  0.00    -0.326 OA
ATOM     14  C   UNL d   1      12.262   9.646  -2.443  0.00  0.00     0.181 C 
ENDBRANCH  11  13
BRANCH  12  15
ATOM     15  O   UNL d   1      11.462   7.102  -3.105  0.00  0.00    -0.326 OA
ATOM     16  C   UNL d   1      12.596   6.362  -2.777  0.00  0.00     0.181 C 
ENDBRANCH  12  15
ENDBRANCH   2   3
BRANCH   1  17
ATOM     17  C   UNL d   1       8.538   5.797 -11.914  0.00  0.00     0.085 C 
ATOM     18  C   UNL d   1       7.246   6.343 -12.028  0.00  0.00     0.019 C 
ATOM     19  C   UNL d   1       6.205   5.634 -12.642  0.00  0.00    -0.001 C 
ATOM     20  C   UNL d   1       6.536   4.390 -13.232  0.00  0.00    -0.004 A 
ATOM     21  C   UNL d   1       5.608   3.502 -13.988  0.00  0.00     0.052 A 
ATOM     22  C   UNL d   1       7.837   3.910 -13.255  0.00  0.00     0.062 A 
ATOM     23  C   UNL d   1       6.565   2.396 -14.545  0.00  0.00     0.116 A 
ATOM     24  N   UNL d   1       7.912   2.787 -14.059  0.00  0.00    -0.276 N 
ATOM     25  C   UNL d   1       9.118   2.237 -14.543  0.00  0.00     0.369 C 
ATOM     26  O   UNL d   1      10.237   2.742 -14.421  0.00  0.00    -0.238 OA
ATOM     27  C   UNL d   1       8.852   4.550 -12.521  0.00  0.00     0.036 C 
BRANCH  25  28
ATOM     28  O   UNL d   1       8.900   1.060 -15.117  0.00  0.00    -0.282 OA
ATOM     29  C   UNL d   1      10.005   0.451 -15.743  0.00  0.00     0.186 C 
ENDBRANCH  25  28
ENDBRANCH   1  17
TORSDOF 5
