REMARK  10 active torsions:
REMARK  status: ('A' for Active; 'I' for Inactive)
REMARK    1  A    between atoms: N_4  and  C_5 
REMARK    2  A    between atoms: C_10  and  C_11 
REMARK    3  A    between atoms: N_19  and  C_20 
REMARK    4  A    between atoms: C_20  and  C_21 
REMARK    5  A    between atoms: C_21  and  C_22 
REMARK    6  A    between atoms: C_22  and  C_23 
REMARK    7  A    between atoms: C_23  and  C_24 
REMARK    8  A    between atoms: C_24  and  C_25 
REMARK       I    between atoms: C_25  and  N_27 
REMARK    9  A    between atoms: N_27  and  C_28 
REMARK   10  A    between atoms: C_28  and  C_29 
ROOT
ATOM      1  C   UNL d   1       7.475   3.848 -14.314  0.00  0.00     0.037 C 
ATOM      2  C   UNL d   1       8.725   3.124 -14.799  0.00  0.00     0.241 C 
ATOM      3  C   UNL d   1       8.840   3.175 -16.349  0.00  0.00     0.135 C 
ATOM      4  N   UNL d   1      10.046   2.510 -16.809  0.00  0.00    -0.344 N 
ATOM      5  C   UNL d   1      11.276   2.868 -16.130  0.00  0.00     0.137 C 
ATOM      6  C   UNL d   1      11.090   2.748 -14.600  0.00  0.00     0.274 C 
ATOM      7  N   UNL d   1       9.962   3.580 -14.149  0.00  0.00     0.139 N 
ENDROOT
BRANCH   7   8
ATOM      8  C   UNL d   1       9.810   3.443 -12.700  0.00  0.00     0.250 C 
BRANCH   8   9
ATOM      9  C   UNL d   1       9.640   4.816 -12.049  0.00  0.00     0.035 C 
BRANCH   9  10
ATOM     10  C   UNL d   1       9.190   4.735 -10.582  0.00  0.00     0.003 C 
BRANCH  10  11
ATOM     11  C   UNL d   1       8.731   6.086 -10.011  0.00  0.00     0.010 C 
BRANCH  11  12
ATOM     12  C   UNL d   1       8.971   6.272  -8.495  0.00  0.00     0.090 C 
BRANCH  12  13
ATOM     13  C   UNL d   1       9.987   7.373  -8.171  0.00  0.00     0.252 C 
ATOM     14  O   UNL d   1      10.901   7.634  -8.955  0.00  0.00    -0.271 OA
ATOM     15  N   UNL d   1       9.837   8.001  -6.995  0.00  0.00    -0.233 NA
BRANCH  15  16
ATOM     16  C   UNL d   1      10.785   8.956  -6.431  0.00  0.00     0.155 C 
BRANCH  16  17
ATOM     17  C   UNL d   1      11.300   8.547  -5.058  0.00  0.00     0.002 A 
ATOM     18  C   UNL d   1      11.576   9.540  -4.093  0.00  0.00    -0.002 A 
ATOM     19  C   UNL d   1      12.052   9.181  -2.818  0.00  0.00    -0.000 A 
ATOM     20  C   UNL d   1      12.255   7.827  -2.494  0.00  0.00    -0.000 A 
ATOM     21  C   UNL d   1      11.975   6.832  -3.448  0.00  0.00    -0.000 A 
ATOM     22  C   UNL d   1      11.498   7.189  -4.725  0.00  0.00    -0.002 A 
ENDBRANCH  16  17
ENDBRANCH  15  16
ENDBRANCH  12  13
ENDBRANCH  11  12
ENDBRANCH  10  11
ENDBRANCH   9  10
ENDBRANCH   8   9
ENDBRANCH   7   8
BRANCH   4  23
ATOM     23  C   UNL d   1       9.988   1.521 -17.830  0.00  0.00     0.056 A 
ATOM     24  C   UNL d   1       9.039   0.461 -17.768  0.00  0.00     0.015 A 
ATOM     25  C   UNL d   1       8.997  -0.465 -18.837  0.00  0.00     0.001 A 
ATOM     26  C   UNL d   1       9.872  -0.364 -19.932  0.00  0.00     0.000 A 
ATOM     27  C   UNL d   1      10.811   0.680 -19.974  0.00  0.00     0.002 A 
ATOM     28  C   UNL d   1      10.871   1.618 -18.926  0.00  0.00     0.017 A 
BRANCH  24  29
ATOM     29  C   UNL d   1       8.113   0.224 -16.646  0.00  0.00     0.001 A 
ATOM     30  C   UNL d   1       6.742   0.003 -16.848  0.00  0.00     0.000 A 
ATOM     31  C   UNL d   1       5.857  -0.170 -15.768  0.00  0.00     0.000 A 
ATOM     32  C   UNL d   1       6.339  -0.091 -14.444  0.00  0.00     0.000 A 
ATOM     33  C   UNL d   1       7.698   0.103 -14.230  0.00  0.00     0.000 A 
ATOM     34  C   UNL d   1       8.579   0.209 -15.334  0.00  0.00     0.000 A 
ENDBRANCH  24  29
ENDBRANCH   4  23
TORSDOF 10
