REMARK  6 active torsions:
REMARK  status: ('A' for Active; 'I' for Inactive)
REMARK    1  A    between atoms: C_2  and  O_3 
REMARK    2  A    between atoms: O_3  and  C_4 
REMARK    3  A    between atoms: C_10  and  C_11 
REMARK    4  A    between atoms: C_11  and  N_12 
REMARK    5  A    between atoms: N_15  and  C_16 
REMARK    6  A    between atoms: C_16  and  C_17 
REMARK       I    between atoms: C_17  and  N_19 
ROOT
ATOM      1  N   UNL d   1       8.907   4.384 -13.097  0.00  0.00     0.146 N 
ATOM      2  C   UNL d   1       9.044   5.836 -13.149  0.00  0.00     0.286 C 
ATOM      3  C   UNL d   1       8.538   6.532 -11.857  0.00  0.00     0.286 C 
ATOM      4  N   UNL d   1       9.248   6.044 -10.677  0.00  0.00     0.151 N 
ATOM      5  C   UNL d   1       9.078   4.605 -10.613  0.00  0.00     0.286 C 
ATOM      6  C   UNL d   1       9.590   3.913 -11.900  0.00  0.00     0.286 C 
ENDROOT
BRANCH   4   7
ATOM      7  C   UNL d   1       8.849   6.742  -9.434  0.00  0.00     0.337 C 
BRANCH   7   8
ATOM      8  C   UNL d   1       9.888   6.700  -8.310  0.00  0.00     0.271 C 
ATOM      9  O   UNL d   1      10.539   5.659  -8.128  0.00  0.00    -0.270 OA
ATOM     10  N   UNL d   1      10.086   7.797  -7.527  0.00  0.00    -0.299 N 
ATOM     11  C   UNL d   1      10.150   9.187  -8.011  0.00  0.00     0.093 A 
ATOM     12  C   UNL d   1      10.688   7.734  -6.237  0.00  0.00     0.058 A 
ATOM     13  C   UNL d   1      10.881   9.981  -6.860  0.00  0.00     0.051 A 
ATOM     14  C   UNL d   1      10.977   9.288  -9.329  0.00  0.00     0.025 C 
ATOM     15  C   UNL d   1      11.194   8.957  -5.836  0.00  0.00    -0.004 A 
ATOM     16  C   UNL d   1      11.954   9.071  -4.639  0.00  0.00    -0.003 A 
ATOM     17  C   UNL d   1      12.165   7.928  -3.851  0.00  0.00    -0.000 A 
ATOM     18  C   UNL d   1      11.590   6.710  -4.238  0.00  0.00     0.002 A 
ATOM     19  C   UNL d   1      10.842   6.614  -5.433  0.00  0.00     0.017 A 
ENDBRANCH   7   8
ENDBRANCH   4   7
BRANCH   1  20
ATOM     20  C   UNL d   1       9.417   3.708 -14.289  0.00  0.00     0.279 C 
BRANCH  20  21
ATOM     21  C   UNL d   1       8.551   2.543 -14.763  0.00  0.00     0.034 A 
ATOM     22  C   UNL d   1       8.922   1.833 -15.934  0.00  0.00     0.092 A 
ATOM     23  C   UNL d   1       8.088   0.781 -16.392  0.00  0.00     0.025 A 
ATOM     24  C   UNL d   1       6.950   0.401 -15.661  0.00  0.00     0.013 A 
ATOM     25  C   UNL d   1       6.588   1.103 -14.499  0.00  0.00     0.058 A 
ATOM     26 CL   UNL d   1       5.206   0.618 -13.589  0.00  0.00    -0.082 Cl
ATOM     27  C   UNL d   1       7.353   2.207 -14.086  0.00  0.00     0.011 A 
BRANCH  22  28
ATOM     28  O   UNL d   1      10.079   2.221 -16.581  0.00  0.00    -0.331 OA
BRANCH  28  29
ATOM     29  C   UNL d   1      10.362   1.684 -17.872  0.00  0.00     0.149 C 
ATOM     30  C   UNL d   1      10.952   0.256 -17.815  0.00  0.00     0.035 C 
ENDBRANCH  28  29
ENDBRANCH  22  28
ENDBRANCH  20  21
ENDBRANCH   1  20
TORSDOF 6
