REMARK  6 active torsions:
REMARK  status: ('A' for Active; 'I' for Inactive)
REMARK    1  A    between atoms: C_2  and  C_3 
REMARK    2  A    between atoms: C_2  and  C_20 
REMARK    3  A    between atoms: C_3  and  C_4 
REMARK    4  A    between atoms: C_4  and  C_5 
REMARK    5  A    between atoms: C_5  and  N_6 
REMARK    6  A    between atoms: C_9  and  C_11 
ROOT
ATOM      1  N   UNL d   1       9.828   6.308 -10.067  0.00  0.00     0.137 N 
ATOM      2  C   UNL d   1       8.873   5.925  -9.028  0.00  0.00     0.253 C 
ATOM      3  C   UNL d   1       9.472   6.276  -7.651  0.00  0.00     0.070 C 
ATOM      4  C   UNL d   1       9.860   7.757  -7.504  0.00  0.00     0.149 C 
ATOM      5  O   UNL d   1       8.678   8.540  -7.563  0.00  0.00    -0.221 OA
ATOM      6  C   UNL d   1      10.730   8.164  -8.698  0.00  0.00     0.070 C 
ATOM      7  C   UNL d   1      10.081   7.748 -10.037  0.00  0.00     0.253 C 
ENDROOT
BRANCH   1   8
ATOM      8  C   UNL d   1       9.273   5.959 -11.382  0.00  0.00     0.251 C 
BRANCH   8   9
ATOM      9  C   UNL d   1       9.256   4.437 -11.593  0.00  0.00     0.043 C 
BRANCH   9  10
ATOM     10  C   UNL d   1       9.688   4.038 -13.015  0.00  0.00     0.071 C 
BRANCH  10  11
ATOM     11  C   UNL d   1       8.591   3.409 -13.878  0.00  0.00     0.173 C 
ATOM     12  O   UNL d   1       7.429   3.809 -13.777  0.00  0.00    -0.291 OA
BRANCH  11  13
ATOM     13  C   UNL d   1       8.994   2.321 -14.819  0.00  0.00     0.035 A 
ATOM     14  C   UNL d   1       8.009   1.583 -15.511  0.00  0.00     0.004 A 
ATOM     15  C   UNL d   1       8.376   0.547 -16.397  0.00  0.00     0.011 A 
ATOM     16  C   UNL d   1       9.737   0.242 -16.599  0.00  0.00     0.058 A 
ATOM     17  C   UNL d   1      10.724   0.977 -15.920  0.00  0.00     0.011 A 
ATOM     18 CL   UNL d   1      10.211  -1.014 -17.683  0.00  0.00    -0.082 Cl
ATOM     19  C   UNL d   1      10.361   2.016 -15.043  0.00  0.00     0.004 A 
ENDBRANCH  11  13
ENDBRANCH  10  11
ENDBRANCH   9  10
ENDBRANCH   8   9
ENDBRANCH   1   8
BRANCH   4  20
ATOM     20  C   UNL d   1      10.595   8.033  -6.174  0.00  0.00     0.005 A 
ATOM     21  C   UNL d   1      10.742   9.344  -5.684  0.00  0.00    -0.001 A 
ATOM     22  C   UNL d   1      11.379   9.590  -4.449  0.00  0.00     0.011 A 
ATOM     23  C   UNL d   1      11.891   8.517  -3.694  0.00  0.00     0.058 A 
ATOM     24  C   UNL d   1      11.765   7.206  -4.170  0.00  0.00     0.011 A 
ATOM     25 CL   UNL d   1      12.653   8.784  -2.165  0.00  0.00    -0.082 Cl
ATOM     26  C   UNL d   1      11.123   6.967  -5.401  0.00  0.00    -0.001 A 
ENDBRANCH   4  20
TORSDOF 6
