REMARK  9 active torsions:
REMARK  status: ('A' for Active; 'I' for Inactive)
REMARK    1  A    between atoms: O_2  and  C_3 
REMARK    2  A    between atoms: C_3  and  C_4 
REMARK    3  A    between atoms: C_3  and  O_31 
REMARK    4  A    between atoms: C_4  and  C_5 
REMARK       I    between atoms: C_5  and  N_7 
REMARK    5  A    between atoms: N_7  and  C_8 
REMARK    6  A    between atoms: C_11  and  C_12 
REMARK    7  A    between atoms: C_12  and  C_13 
REMARK    8  A    between atoms: C_13  and  N_14 
REMARK    9  A    between atoms: C_17  and  C_18 
ROOT
ATOM      1  C   UNL d   1       9.280   4.881 -11.798  0.00  0.00     0.035 C 
ENDROOT
BRANCH   1   2
ATOM      2  C   UNL d   1       9.042   3.594 -12.618  0.00  0.00     0.002 C 
ATOM      3  C   UNL d   1       7.569   3.575 -13.098  0.00  0.00     0.002 C 
ATOM      4  C   UNL d   1       7.166   2.390 -13.990  0.00  0.00     0.024 C 
ATOM      5  C   UNL d   1       8.202   2.187 -15.117  0.00  0.00     0.106 C 
ATOM      6  C   UNL d   1       9.649   2.111 -14.601  0.00  0.00     0.024 C 
ATOM      7  C   UNL d   1      10.022   3.386 -13.805  0.00  0.00     0.002 C 
BRANCH   5   8
ATOM      8  N   UNL d   1       7.858   0.978 -15.865  0.00  0.00    -0.240 NA
ATOM      9  C   UNL d   1       7.085   0.959 -16.947  0.00  0.00     0.257 C 
ATOM     10  O   UNL d   1       6.684   1.985 -17.504  0.00  0.00    -0.270 OA
BRANCH   9  11
ATOM     11  C   UNL d   1       6.697  -0.423 -17.485  0.00  0.00     0.151 C 
BRANCH  11  12
ATOM     12  C   UNL d   1       5.162  -0.651 -17.598  0.00  0.00     0.245 C 
BRANCH  12  13
ATOM     13  O   UNL d   1       4.595  -0.534 -16.325  0.00  0.00    -0.328 OA
ATOM     14  C   UNL d   1       4.701  -1.699 -15.517  0.00  0.00     0.177 C 
ENDBRANCH  12  13
BRANCH  12  15
ATOM     15  O   UNL d   1       4.611   0.287 -18.477  0.00  0.00    -0.328 OA
ATOM     16  C   UNL d   1       4.609  -0.099 -19.845  0.00  0.00     0.177 C 
ENDBRANCH  12  15
ENDBRANCH  11  12
ENDBRANCH   9  11
ENDBRANCH   5   8
ENDBRANCH   1   2
BRANCH   1  17
ATOM     17  C   UNL d   1       8.541   4.983 -10.445  0.00  0.00     0.250 C 
BRANCH  17  18
ATOM     18  N   UNL d   1       9.217   5.800  -9.445  0.00  0.00     0.137 N 
ATOM     19  C   UNL d   1       8.287   6.204  -8.425  0.00  0.00     0.251 C 
ATOM     20  C   UNL d   1       8.905   7.324  -7.535  0.00  0.00     0.040 C 
ATOM     21  C   UNL d   1      10.115   6.745  -6.787  0.00  0.00     0.026 C 
ATOM     22  C   UNL d   1      11.044   6.025  -7.772  0.00  0.00     0.040 C 
ATOM     23  C   UNL d   1      10.217   5.087  -8.694  0.00  0.00     0.251 C 
BRANCH  21  24
ATOM     24  C   UNL d   1      10.901   7.762  -6.004  0.00  0.00    -0.024 A 
ATOM     25  C   UNL d   1      11.228   7.548  -4.644  0.00  0.00    -0.001 A 
ATOM     26  C   UNL d   1      11.948   8.404  -3.905  0.00  0.00     0.090 A 
ATOM     27  C   UNL d   1      10.944   6.358  -3.807  0.00  0.00     0.061 A 
ATOM     28  C   UNL d   1      12.408   9.577  -4.482  0.00  0.00     0.024 A 
ATOM     29  O   UNL d   1      12.135   8.065  -2.596  0.00  0.00    -0.331 OA
ATOM     30  C   UNL d   1      12.098   9.859  -5.853  0.00  0.00     0.002 A 
ATOM     31  C   UNL d   1      11.378   8.932  -6.623  0.00  0.00    -0.004 A 
ATOM     32  C   UNL d   1      11.529   6.777  -2.423  0.00  0.00     0.154 A 
ENDBRANCH  21  24
ENDBRANCH  17  18
ENDBRANCH   1  17
TORSDOF 9
