REMARK  5 active torsions:
REMARK  status: ('A' for Active; 'I' for Inactive)
REMARK    1  A    between atoms: C_2  and  C_3 
REMARK       I    between atoms: N_11  and  C_12 
REMARK    2  A    between atoms: C_12  and  C_14 
REMARK    3  A    between atoms: C_14  and  N_15 
REMARK    4  A    between atoms: N_18  and  C_19 
REMARK    5  A    between atoms: C_19  and  C_20 
ROOT
ATOM      1  N   UNL d   1      10.089   3.077 -14.938  0.00  0.00     0.151 N 
ATOM      2  C   UNL d   1       9.575   4.371 -15.407  0.00  0.00     0.286 C 
ATOM      3  C   UNL d   1       8.618   5.013 -14.392  0.00  0.00     0.286 C 
ATOM      4  N   UNL d   1       9.276   5.184 -13.095  0.00  0.00     0.146 N 
ATOM      5  C   UNL d   1       9.710   3.868 -12.617  0.00  0.00     0.286 C 
ATOM      6  C   UNL d   1      10.674   3.209 -13.610  0.00  0.00     0.286 C 
ENDROOT
BRANCH   1   7
ATOM      7  C   UNL d   1      11.006   2.430 -15.867  0.00  0.00     0.337 C 
BRANCH   7   8
ATOM      8  C   UNL d   1      12.151   3.297 -16.422  0.00  0.00     0.272 C 
ATOM      9  N   UNL d   1      12.513   3.153 -17.720  0.00  0.00    -0.296 N 
ATOM     10  C   UNL d   1      13.068   4.259 -18.515  0.00  0.00     0.115 C 
ATOM     11  C   UNL d   1      12.570   1.933 -18.429  0.00  0.00     0.059 A 
ATOM     12  C   UNL d   1      13.690   3.583 -19.767  0.00  0.00     0.055 C 
ATOM     13  C   UNL d   1      13.263   2.137 -19.633  0.00  0.00    -0.004 A 
ATOM     14  C   UNL d   1      13.487   1.081 -20.535  0.00  0.00    -0.003 A 
ATOM     15  C   UNL d   1      12.985  -0.201 -20.207  0.00  0.00    -0.000 A 
ATOM     16  C   UNL d   1      12.283  -0.401 -18.986  0.00  0.00     0.002 A 
ATOM     17  C   UNL d   1      12.082   0.651 -18.075  0.00  0.00     0.017 A 
ATOM     18  O   UNL d   1      12.685   4.117 -15.678  0.00  0.00    -0.270 OA
BRANCH  10  19
ATOM     19  C   UNL d   1      11.996   5.277 -18.922  0.00  0.00    -0.004 C 
ATOM     20  C   UNL d   1      10.665   5.139 -18.748  0.00  0.00    -0.003 C 
ENDBRANCH  10  19
ENDBRANCH   7   8
ENDBRANCH   1   7
BRANCH   4  21
ATOM     21  C   UNL d   1       8.389   5.842 -12.147  0.00  0.00     0.277 C 
BRANCH  21  22
ATOM     22  C   UNL d   1       9.061   6.176 -10.829  0.00  0.00     0.011 A 
ATOM     23  C   UNL d   1       8.886   5.329  -9.713  0.00  0.00    -0.002 A 
ATOM     24  C   UNL d   1       9.501   5.649  -8.488  0.00  0.00     0.011 A 
ATOM     25  C   UNL d   1      10.290   6.809  -8.373  0.00  0.00     0.058 A 
ATOM     26  C   UNL d   1      10.471   7.651  -9.487  0.00  0.00     0.011 A 
ATOM     27 CL   UNL d   1      11.052   7.189  -6.871  0.00  0.00    -0.082 Cl
ATOM     28  C   UNL d   1       9.853   7.331 -10.715  0.00  0.00    -0.002 A 
ENDBRANCH  21  22
ENDBRANCH   4  21
TORSDOF 5
