REMARK  7 active torsions:
REMARK  status: ('A' for Active; 'I' for Inactive)
REMARK    1  A    between atoms: C_4  and  C_5 
REMARK    2  A    between atoms: C_5  and  C_6 
REMARK       I    between atoms: C_6  and  N_8 
REMARK    3  A    between atoms: N_8  and  C_9 
REMARK    4  A    between atoms: C_12  and  C_13 
REMARK    5  A    between atoms: C_13  and  C_14 
REMARK    6  A    between atoms: C_14  and  N_15 
REMARK    7  A    between atoms: C_18  and  C_19 
ROOT
ATOM      1  C   UNL d   1       7.877   6.357 -11.663  0.00  0.00     0.035 C 
ENDROOT
BRANCH   1   2
ATOM      2  C   UNL d   1       7.587   5.339 -12.788  0.00  0.00     0.002 C 
ATOM      3  C   UNL d   1       8.399   4.045 -12.620  0.00  0.00     0.002 C 
ATOM      4  C   UNL d   1       8.025   3.001 -13.658  0.00  0.00     0.024 C 
ATOM      5  C   UNL d   1       6.521   2.670 -13.583  0.00  0.00     0.106 C 
ATOM      6  C   UNL d   1       5.668   3.928 -13.768  0.00  0.00     0.024 C 
ATOM      7  C   UNL d   1       6.071   5.016 -12.764  0.00  0.00     0.002 C 
BRANCH   5   8
ATOM      8  N   UNL d   1       6.245   1.664 -14.606  0.00  0.00    -0.240 NA
ATOM      9  C   UNL d   1       5.738   0.446 -14.383  0.00  0.00     0.258 C 
ATOM     10  O   UNL d   1       5.141   0.124 -13.348  0.00  0.00    -0.270 OA
BRANCH   9  11
ATOM     11  C   UNL d   1       6.046  -0.613 -15.439  0.00  0.00     0.143 C 
BRANCH  11  12
ATOM     12  C   UNL d   1       5.666  -0.196 -16.823  0.00  0.00     0.113 A 
ATOM     13  C   UNL d   1       4.692  -0.623 -17.674  0.00  0.00     0.040 A 
ATOM     14  C   UNL d   1       4.872   0.202 -18.813  0.00  0.00     0.088 A 
ATOM     15  C   UNL d   1       4.065   0.219 -20.069  0.00  0.00     0.055 C 
ATOM     16  N   UNL d   1       5.878   1.047 -18.673  0.00  0.00    -0.131 NA
ATOM     17  O   UNL d   1       6.404   0.789 -17.400  0.00  0.00    -0.215 OA
ENDBRANCH  11  12
ENDBRANCH   9  11
ENDBRANCH   5   8
ENDBRANCH   1   2
BRANCH   1  18
ATOM     18  C   UNL d   1       9.372   6.612 -11.382  0.00  0.00     0.250 C 
BRANCH  18  19
ATOM     19  N   UNL d   1       9.639   7.236 -10.094  0.00  0.00     0.137 N 
ATOM     20  C   UNL d   1       9.161   6.404  -8.979  0.00  0.00     0.251 C 
ATOM     21  C   UNL d   1       9.394   7.132  -7.658  0.00  0.00     0.040 C 
ATOM     22  C   UNL d   1      10.888   7.431  -7.466  0.00  0.00     0.028 C 
ATOM     23  C   UNL d   1      11.466   8.135  -8.724  0.00  0.00     0.040 C 
ATOM     24  C   UNL d   1      11.092   7.398 -10.006  0.00  0.00     0.251 C 
BRANCH  22  25
ATOM     25  C   UNL d   1      11.080   8.264  -6.204  0.00  0.00     0.002 A 
ATOM     26  C   UNL d   1      11.466   7.684  -4.977  0.00  0.00     0.115 A 
ATOM     27  C   UNL d   1      11.674   8.457  -3.835  0.00  0.00     0.119 A 
ATOM     28  O   UNL d   1      11.719   6.398  -4.675  0.00  0.00    -0.300 OA
ATOM     29  C   UNL d   1      11.462   9.830  -3.833  0.00  0.00     0.026 A 
ATOM     30  O   UNL d   1      12.061   7.672  -2.808  0.00  0.00    -0.300 OA
ATOM     31  C   UNL d   1      11.045  10.419  -5.037  0.00  0.00     0.002 A 
ATOM     32  C   UNL d   1      10.860   9.653  -6.210  0.00  0.00    -0.002 A 
ATOM     33  C   UNL d   1      12.075   6.375  -3.311  0.00  0.00     0.304 A 
ENDBRANCH  22  25
ENDBRANCH  18  19
ENDBRANCH   1  18
TORSDOF 7
