REMARK  2 active torsions:
REMARK  status: ('A' for Active; 'I' for Inactive)
REMARK    1  A    between atoms: C_5  and  C_6 
REMARK    2  A    between atoms: C_6  and  N_7 
ROOT
ATOM      1 CL   UNL d   1      12.747   8.780  -1.692  0.00  0.00    -0.082 Cl
ATOM      2  C   UNL d   1      12.018   8.410  -3.212  0.00  0.00     0.058 A 
ATOM      3  C   UNL d   1      11.890   7.076  -3.632  0.00  0.00     0.011 A 
ATOM      4  C   UNL d   1      11.135   6.784  -4.795  0.00  0.00    -0.002 A 
ATOM      5  C   UNL d   1      10.524   7.816  -5.525  0.00  0.00     0.011 A 
ATOM      6  C   UNL d   1      10.723   9.169  -5.134  0.00  0.00    -0.002 A 
ATOM      7  C   UNL d   1      11.459   9.447  -3.965  0.00  0.00     0.011 A 
ENDROOT
BRANCH   5   8
ATOM      8  C   UNL d   1       9.657   7.525  -6.713  0.00  0.00     0.277 C 
BRANCH   8   9
ATOM      9  N   UNL d   1      10.443   7.454  -7.949  0.00  0.00     0.146 N 
ATOM     10  C   UNL d   1      11.501   8.464  -8.029  0.00  0.00     0.289 C 
ATOM     11  C   UNL d   1      12.250   8.411  -9.341  0.00  0.00     0.325 C 
ATOM     12  N   UNL d   1      11.333   8.626 -10.427  0.00  0.00     0.343 N 
ATOM     13  C   UNL d   1      10.236   7.655 -10.423  0.00  0.00     0.325 C 
ATOM     14  C   UNL d   1       9.528   7.662  -9.060  0.00  0.00     0.289 C 
ENDBRANCH   8   9
ENDBRANCH   5   8
TORSDOF 2
