REMARK  7 active torsions:
REMARK  status: ('A' for Active; 'I' for Inactive)
REMARK    1  A    between atoms: C_3  and  C_4 
REMARK    2  A    between atoms: N_15  and  C_16 
REMARK    3  A    between atoms: C_16  and  C_17 
REMARK    4  A    between atoms: C_17  and  C_18 
REMARK    5  A    between atoms: C_18  and  C_19 
REMARK    6  A    between atoms: C_19  and  N_20 
REMARK    7  A    between atoms: C_24  and  C_25 
ROOT
ATOM      1  C   UNL d   1       9.556   3.237 -14.252  0.00  0.00     0.114 C 
ENDROOT
BRANCH   1   2
ATOM      2  N   UNL d   1       9.917   3.238 -15.652  0.00  0.00    -0.249 N 
ATOM      3  C   UNL d   1      11.072   3.959 -16.021  0.00  0.00     0.265 A 
ATOM      4  O   UNL d   1      11.749   4.546 -15.169  0.00  0.00    -0.267 OA
ATOM      5  C   UNL d   1      11.388   3.965 -17.454  0.00  0.00     0.068 A 
ATOM      6  C   UNL d   1      10.544   3.348 -18.336  0.00  0.00     0.046 A 
ATOM      7  C   UNL d   1      10.853   3.330 -19.842  0.00  0.00     0.044 C 
ATOM      8  N   UNL d   1       9.385   2.681 -17.925  0.00  0.00    -0.285 N 
ATOM      9  C   UNL d   1      10.140   2.235 -20.634  0.00  0.00     0.008 C 
ATOM     10  C   UNL d   1       8.660   2.275 -20.300  0.00  0.00     0.025 C 
ATOM     11  C   UNL d   1       8.465   1.993 -18.810  0.00  0.00     0.110 C 
ATOM     12  C   UNL d   1       9.058   2.592 -16.553  0.00  0.00     0.333 A 
ATOM     13  O   UNL d   1       8.047   2.000 -16.166  0.00  0.00    -0.246 OA
BRANCH   5  14
ATOM     14  C   UNL d   1      12.575   4.716 -17.917  0.00  0.00     0.006 A 
ATOM     15  C   UNL d   1      12.431   5.855 -18.741  0.00  0.00     0.003 A 
ATOM     16  C   UNL d   1      13.569   6.555 -19.184  0.00  0.00     0.030 A 
ATOM     17  C   UNL d   1      14.855   6.128 -18.799  0.00  0.00     0.140 A 
ATOM     18  C   UNL d   1      15.002   4.997 -17.974  0.00  0.00     0.030 A 
ATOM     19  F   UNL d   1      15.950   6.807 -19.217  0.00  0.00    -0.204 F 
ATOM     20  C   UNL d   1      13.866   4.290 -17.536  0.00  0.00     0.003 A 
ENDBRANCH   5  14
ENDBRANCH   1   2
BRANCH   1  21
ATOM     21  C   UNL d   1       8.776   4.502 -13.843  0.00  0.00     0.027 C 
BRANCH  21  22
ATOM     22  C   UNL d   1       8.758   4.646 -12.326  0.00  0.00     0.037 C 
BRANCH  22  23
ATOM     23  C   UNL d   1       8.940   6.104 -11.857  0.00  0.00     0.250 C 
BRANCH  23  24
ATOM     24  N   UNL d   1       9.051   6.202 -10.408  0.00  0.00     0.137 N 
ATOM     25  C   UNL d   1      10.255   5.617  -9.880  0.00  0.00     0.255 C 
ATOM     26  C   UNL d   1      10.435   5.895  -8.389  0.00  0.00     0.057 C 
ATOM     27  C   UNL d   1       9.221   5.382  -7.657  0.00  0.00     0.009 C 
ATOM     28  C   UNL d   1       7.971   5.989  -8.207  0.00  0.00     0.036 C 
ATOM     29  C   UNL d   1       7.867   5.696  -9.721  0.00  0.00     0.250 C 
BRANCH  26  30
ATOM     30  C   UNL d   1      10.724   7.330  -8.089  0.00  0.00     0.000 A 
ATOM     31  C   UNL d   1      11.024   7.880  -6.802  0.00  0.00     0.018 A 
ATOM     32  C   UNL d   1      11.203   9.284  -6.970  0.00  0.00     0.081 A 
ATOM     33  C   UNL d   1      11.162   7.357  -5.494  0.00  0.00     0.031 A 
ATOM     34  N   UNL d   1      11.053   9.524  -8.317  0.00  0.00    -0.244 NA
ATOM     35  C   UNL d   1      11.466  10.137  -5.889  0.00  0.00     0.021 A 
ATOM     36  C   UNL d   1      10.731   8.366  -8.986  0.00  0.00     0.095 A 
ATOM     37  C   UNL d   1      11.592   9.591  -4.600  0.00  0.00     0.031 A 
ATOM     38  C   UNL d   1      11.470   8.199  -4.408  0.00  0.00     0.140 A 
ATOM     39  F   UNL d   1      11.658   7.672  -3.175  0.00  0.00    -0.204 F 
ENDBRANCH  26  30
ENDBRANCH  23  24
ENDBRANCH  22  23
ENDBRANCH  21  22
ENDBRANCH   1  21
TORSDOF 7
