REMARK  4 active torsions:
REMARK  status: ('A' for Active; 'I' for Inactive)
REMARK    1  A    between atoms: C_8  and  C_9 
REMARK    2  A    between atoms: C_9  and  C_10 
REMARK    3  A    between atoms: C_10  and  N_11 
REMARK    4  A    between atoms: N_14  and  C_15 
ROOT
ATOM      1  N   UNL d   1      10.497   6.399  -9.646  0.00  0.00     0.141 N 
ATOM      2  C   UNL d   1       9.965   6.105  -8.313  0.00  0.00     0.274 C 
ATOM      3  C   UNL d   1      11.010   6.397  -7.240  0.00  0.00     0.138 C 
ATOM      4  N   UNL d   1      11.503   7.750  -7.383  0.00  0.00    -0.329 N 
ATOM      5  C   UNL d   1      11.908   8.164  -8.724  0.00  0.00     0.138 C 
ATOM      6  C   UNL d   1      10.827   7.821  -9.756  0.00  0.00     0.274 C 
ENDROOT
BRANCH   1   7
ATOM      7  C   UNL d   1       9.532   6.068 -10.674  0.00  0.00     0.255 C 
BRANCH   7   8
ATOM      8  C   UNL d   1       9.309   4.554 -10.769  0.00  0.00     0.063 C 
BRANCH   8   9
ATOM      9  C   UNL d   1       8.521   4.240 -12.012  0.00  0.00    -0.002 A 
ATOM     10  C   UNL d   1       9.144   3.946 -13.253  0.00  0.00     0.076 A 
ATOM     11  N   UNL d   1      10.546   4.039 -13.386  0.00  0.00    -0.212 NA
ATOM     12  C   UNL d   1       8.357   3.520 -14.352  0.00  0.00    -0.004 A 
ATOM     13  C   UNL d   1      11.241   3.617 -14.449  0.00  0.00     0.256 C 
ATOM     14  C   UNL d   1      10.496   2.818 -15.526  0.00  0.00     0.094 C 
ATOM     15  O   UNL d   1      12.433   3.858 -14.549  0.00  0.00    -0.270 OA
ATOM     16  C   UNL d   1       9.037   3.299 -15.712  0.00  0.00     0.033 C 
ATOM     17  C   UNL d   1       8.270   2.350 -16.670  0.00  0.00     0.005 C 
ATOM     18  C   UNL d   1       6.967   3.369 -14.157  0.00  0.00     0.009 A 
ATOM     19  C   UNL d   1       6.369   3.685 -12.946  0.00  0.00     0.057 A 
ATOM     20  C   UNL d   1       7.135   4.113 -11.862  0.00  0.00     0.009 A 
ATOM     21 CL   UNL d   1       4.678   3.528 -12.839  0.00  0.00    -0.082 Cl
ENDBRANCH   8   9
ENDBRANCH   7   8
ENDBRANCH   1   7
BRANCH   4  22
ATOM     22  C   UNL d   1      11.432   8.638  -6.309  0.00  0.00     0.148 A 
ATOM     23  C   UNL d   1      11.719   8.259  -4.931  0.00  0.00     0.042 A 
ATOM     24  C   UNL d   1      11.584   9.395  -4.099  0.00  0.00     0.050 A 
ATOM     25  C   UNL d   1      12.129   7.060  -4.296  0.00  0.00     0.004 A 
ATOM     26  S   UNL d   1      11.066  10.695  -5.138  0.00  0.00     0.015 SA
ATOM     27  C   UNL d   1      11.875   9.350  -2.726  0.00  0.00     0.008 A 
ATOM     28  N   UNL d   1      11.124   9.883  -6.558  0.00  0.00    -0.192 NA
ATOM     29  C   UNL d   1      12.284   8.140  -2.125  0.00  0.00     0.001 A 
ATOM     30  C   UNL d   1      12.422   6.994  -2.923  0.00  0.00     0.000 A 
ENDBRANCH   4  22
TORSDOF 4
