REMARK  5 active torsions:
REMARK  status: ('A' for Active; 'I' for Inactive)
REMARK    1  A    between atoms: C_2  and  C_3 
REMARK    2  A    between atoms: C_3  and  N_4 
REMARK    3  A    between atoms: N_4  and  C_5 
REMARK    4  A    between atoms: N_4  and  C_8 
REMARK    5  A    between atoms: C_5  and  C_6 
ROOT
ATOM      1  C   UNL d   1       7.327   4.401 -12.781  0.00  0.00     0.227 C 
ATOM      2  C   UNL d   1       5.781   4.393 -12.940  0.00  0.00     0.060 C 
ATOM      3  C   UNL d   1       5.165   3.005 -12.824  0.00  0.00     0.129 C 
ATOM      4  N   UNL d   1       5.933   2.045 -13.584  0.00  0.00    -0.254 N 
ATOM      5  N   UNL d   1       5.467   0.783 -13.781  0.00  0.00    -0.167 NA
ATOM      6  C   UNL d   1       6.439   0.168 -14.445  0.00  0.00     0.133 A 
ATOM      7  C   UNL d   1       7.557   1.038 -14.634  0.00  0.00     0.092 A 
ATOM      8 CL   UNL d   1       9.068   0.631 -15.357  0.00  0.00    -0.080 Cl
ATOM      9  C   UNL d   1       7.214   2.217 -14.090  0.00  0.00     0.070 A 
ATOM     10  C   UNL d   1       7.950   3.520 -13.897  0.00  0.00     0.080 C 
ENDROOT
BRANCH   1  11
ATOM     11  N   UNL d   1       7.935   5.749 -12.805  0.00  0.00     0.135 N 
BRANCH  11  12
ATOM     12  C   UNL d   1       9.307   5.745 -12.264  0.00  0.00     0.250 C 
BRANCH  12  13
ATOM     13  C   UNL d   1       9.497   6.000 -10.735  0.00  0.00     0.035 C 
ATOM     14  C   UNL d   1       9.183   4.753  -9.878  0.00  0.00     0.002 C 
ENDBRANCH  12  13
ENDBRANCH  11  12
BRANCH  11  15
ATOM     15  C   UNL d   1       7.180   6.803 -12.135  0.00  0.00     0.250 C 
BRANCH  15  16
ATOM     16  C   UNL d   1       6.055   7.480 -12.912  0.00  0.00     0.035 C 
ATOM     17  C   UNL d   1       5.194   8.415 -12.078  0.00  0.00     0.002 C 
ENDBRANCH  15  16
ENDBRANCH  11  15
ENDBRANCH   1  11
TORSDOF 5
