REMARK  7 active torsions:
REMARK  status: ('A' for Active; 'I' for Inactive)
REMARK    1  A    between atoms: C_2  and  C_3 
REMARK    2  A    between atoms: N_13  and  C_14 
REMARK    3  A    between atoms: C_14  and  C_15 
REMARK    4  A    between atoms: C_15  and  C_17 
REMARK    5  A    between atoms: C_17  and  N_18 
REMARK    6  A    between atoms: N_21  and  C_22 
REMARK    7  A    between atoms: C_22  and  C_23 
ROOT
ATOM      1  C   UNL d   1       8.675   0.305 -16.827  0.00  0.00     0.208 C 
ATOM      2  O   UNL d   1       9.607  -0.551 -17.455  0.00  0.00    -0.219 OA
ENDROOT
BRANCH   1   3
ATOM      3  C   UNL d   1       7.711   0.865 -17.897  0.00  0.00     0.148 C 
BRANCH   3   4
ATOM      4  N   UNL d   1       7.010  -0.203 -18.629  0.00  0.00    -0.247 N 
ATOM      5  C   UNL d   1       7.275  -0.552 -19.899  0.00  0.00     0.348 A 
ATOM      6  N   UNL d   1       6.479  -1.569 -20.234  0.00  0.00    -0.209 NA
ATOM      7  O   UNL d   1       8.114  -0.043 -20.641  0.00  0.00    -0.245 OA
ATOM      8  C   UNL d   1       5.627  -2.012 -19.145  0.00  0.00     0.179 A 
ATOM      9  C   UNL d   1       4.147  -1.851 -19.552  0.00  0.00     0.039 C 
ATOM     10  C   UNL d   1       6.037  -0.966 -18.108  0.00  0.00     0.265 A 
ATOM     11  O   UNL d   1       5.546  -0.860 -16.984  0.00  0.00    -0.269 OA
BRANCH   8  12
ATOM     12  C   UNL d   1       5.969  -3.429 -18.643  0.00  0.00     0.006 A 
ATOM     13  C   UNL d   1       5.156  -4.035 -17.659  0.00  0.00     0.000 A 
ATOM     14  C   UNL d   1       5.432  -5.332 -17.186  0.00  0.00     0.029 A 
ATOM     15  C   UNL d   1       6.532  -6.045 -17.685  0.00  0.00     0.140 A 
ATOM     16  C   UNL d   1       7.359  -5.459 -18.662  0.00  0.00     0.029 A 
ATOM     17  F   UNL d   1       6.789  -7.294 -17.229  0.00  0.00    -0.204 F 
ATOM     18  C   UNL d   1       7.078  -4.161 -19.139  0.00  0.00     0.000 A 
ENDBRANCH   8  12
ENDBRANCH   3   4
ENDBRANCH   1   3
BRANCH   1  19
ATOM     19  C   UNL d   1       9.494   1.393 -16.105  0.00  0.00     0.285 C 
BRANCH  19  20
ATOM     20  N   UNL d   1       8.723   2.437 -15.431  0.00  0.00     0.144 N 
ATOM     21  C   UNL d   1       7.838   1.916 -14.387  0.00  0.00     0.286 C 
ATOM     22  C   UNL d   1       7.059   3.048 -13.685  0.00  0.00     0.286 C 
ATOM     23  N   UNL d   1       7.957   4.026 -13.071  0.00  0.00     0.146 N 
ATOM     24  C   UNL d   1       8.847   4.544 -14.116  0.00  0.00     0.286 C 
ATOM     25  C   UNL d   1       9.621   3.416 -14.816  0.00  0.00     0.286 C 
BRANCH  23  26
ATOM     26  C   UNL d   1       7.207   5.083 -12.393  0.00  0.00     0.277 C 
BRANCH  26  27
ATOM     27  C   UNL d   1       8.091   6.166 -11.786  0.00  0.00     0.011 A 
ATOM     28  C   UNL d   1       8.832   6.025 -10.589  0.00  0.00    -0.002 A 
ATOM     29  C   UNL d   1       9.627   7.111 -10.115  0.00  0.00    -0.000 A 
ATOM     30  C   UNL d   1       8.740   4.851  -9.828  0.00  0.00    -0.000 A 
ATOM     31  C   UNL d   1       9.721   8.307 -10.846  0.00  0.00    -0.000 A 
ATOM     32  C   UNL d   1      10.297   7.024  -8.884  0.00  0.00    -0.000 A 
ATOM     33  C   UNL d   1       8.989   8.436 -12.037  0.00  0.00    -0.000 A 
ATOM     34  C   UNL d   1       8.145   7.392 -12.456  0.00  0.00    -0.002 A 
ATOM     35  C   UNL d   1      10.201   5.842  -8.140  0.00  0.00    -0.000 A 
ATOM     36  C   UNL d   1       9.434   4.758  -8.617  0.00  0.00    -0.000 A 
ENDBRANCH  26  27
ENDBRANCH  23  26
ENDBRANCH  19  20
ENDBRANCH   1  19
TORSDOF 7
