REMARK  7 active torsions:
REMARK  status: ('A' for Active; 'I' for Inactive)
REMARK    1  A    between atoms: C_5  and  N_6 
REMARK    2  A    between atoms: N_9  and  C_10 
REMARK    3  A    between atoms: C_10  and  C_11 
REMARK    4  A    between atoms: C_11  and  C_12 
REMARK    5  A    between atoms: C_12  and  C_13 
REMARK    6  A    between atoms: C_13  and  O_14 
REMARK    7  A    between atoms: O_14  and  C_15 
ROOT
ATOM      1  N   UNL d   1       8.544   3.303 -13.802  0.00  0.00    -0.344 N 
ATOM      2  C   UNL d   1       9.820   3.194 -13.129  0.00  0.00     0.137 C 
ATOM      3  C   UNL d   1      10.438   4.593 -13.131  0.00  0.00     0.274 C 
ATOM      4  N   UNL d   1       9.557   5.610 -12.530  0.00  0.00     0.141 N 
ATOM      5  C   UNL d   1       8.365   5.724 -13.372  0.00  0.00     0.274 C 
ATOM      6  C   UNL d   1       7.635   4.372 -13.397  0.00  0.00     0.137 C 
ENDROOT
BRANCH   4   7
ATOM      7  C   UNL d   1       9.169   5.402 -11.115  0.00  0.00     0.251 C 
BRANCH   7   8
ATOM      8  C   UNL d   1      10.212   5.946 -10.135  0.00  0.00     0.038 C 
BRANCH   8   9
ATOM      9  C   UNL d   1       9.593   6.803  -9.041  0.00  0.00     0.035 C 
BRANCH   9  10
ATOM     10  C   UNL d   1      10.470   8.036  -8.750  0.00  0.00     0.149 C 
BRANCH  10  11
ATOM     11  O   UNL d   1      10.101   8.719  -7.561  0.00  0.00    -0.331 OA
BRANCH  11  12
ATOM     12  C   UNL d   1      10.722   8.305  -6.413  0.00  0.00     0.094 A 
ATOM     13  C   UNL d   1      11.067   9.314  -5.481  0.00  0.00     0.022 A 
ATOM     14  C   UNL d   1      11.717   8.916  -4.296  0.00  0.00     0.013 A 
ATOM     15  C   UNL d   1      12.006   7.604  -4.035  0.00  0.00     0.012 A 
ATOM     16  C   UNL d   1      12.274   9.725  -3.175  0.00  0.00     0.317 C 
ATOM     17  C   UNL d   1      11.674   6.602  -4.940  0.00  0.00    -0.001 A 
ATOM     18  C   UNL d   1      12.758   7.473  -2.757  0.00  0.00     0.317 C 
ATOM     19  C   UNL d   1      11.032   6.943  -6.137  0.00  0.00     0.024 A 
ATOM     20  N   UNL d   1      12.602   8.781  -2.098  0.00  0.00     0.349 N 
ENDBRANCH  11  12
ENDBRANCH  10  11
ENDBRANCH   9  10
ENDBRANCH   8   9
ENDBRANCH   7   8
ENDBRANCH   4   7
BRANCH   1  21
ATOM     21  C   UNL d   1       8.234   2.382 -14.794  0.00  0.00     0.056 A 
ATOM     22  C   UNL d   1       7.059   1.575 -14.732  0.00  0.00     0.015 A 
ATOM     23  C   UNL d   1       6.148   1.670 -13.653  0.00  0.00     0.001 A 
ATOM     24  C   UNL d   1       6.818   0.646 -15.759  0.00  0.00     0.001 A 
ATOM     25  C   UNL d   1       5.022   0.843 -13.630  0.00  0.00     0.000 A 
ATOM     26  C   UNL d   1       4.758  -0.063 -14.647  0.00  0.00     0.000 A 
ATOM     27  C   UNL d   1       5.663  -0.169 -15.721  0.00  0.00     0.000 A 
ATOM     28  C   UNL d   1       7.728   0.507 -16.833  0.00  0.00     0.000 A 
ATOM     29  C   UNL d   1       8.907   1.279 -16.863  0.00  0.00     0.002 A 
ATOM     30  C   UNL d   1       9.162   2.203 -15.854  0.00  0.00     0.017 A 
ENDBRANCH   1  21
TORSDOF 7
