REMARK  7 active torsions:
REMARK  status: ('A' for Active; 'I' for Inactive)
REMARK    1  A    between atoms: O_2  and  C_3 
REMARK    2  A    between atoms: N_13  and  C_14 
REMARK    3  A    between atoms: C_14  and  C_15 
REMARK    4  A    between atoms: C_15  and  C_16 
REMARK    5  A    between atoms: C_16  and  C_17 
REMARK    6  A    between atoms: C_17  and  N_18 
REMARK       I    between atoms: N_18  and  C_19 
REMARK    7  A    between atoms: C_19  and  C_21 
ROOT
ATOM      1  C   UNL d   1       9.400   0.777 -16.407  0.00  0.00     0.094 A 
ATOM      2  C   UNL d   1      10.779   1.008 -16.182  0.00  0.00     0.026 A 
ATOM      3  C   UNL d   1      11.201   2.025 -15.307  0.00  0.00     0.026 A 
ATOM      4  C   UNL d   1      10.265   2.823 -14.625  0.00  0.00     0.092 A 
ATOM      5  C   UNL d   1       8.886   2.576 -14.822  0.00  0.00     0.031 A 
ATOM      6  C   UNL d   1       8.463   1.576 -15.722  0.00  0.00     0.024 A 
ATOM      7  C   UNL d   1       7.868   3.426 -14.097  0.00  0.00     0.173 C 
ATOM      8  O   UNL d   1       6.685   2.705 -13.751  0.00  0.00    -0.348 OA
ATOM      9  C   UNL d   1       5.688   3.535 -13.162  0.00  0.00     0.178 C 
ATOM     10  C   UNL d   1       6.270   4.254 -11.938  0.00  0.00     0.282 C 
ATOM     11  N   UNL d   1       7.494   4.994 -12.245  0.00  0.00     0.143 N 
ATOM     12  C   UNL d   1       8.478   4.105 -12.865  0.00  0.00     0.280 C 
ATOM     13  C   UNL d   1       9.801   4.768 -13.302  0.00  0.00     0.185 C 
ATOM     14  O   UNL d   1      10.739   3.803 -13.776  0.00  0.00    -0.329 OA
ENDROOT
BRANCH  11  15
ATOM     15  C   UNL d   1       7.997   5.713 -11.076  0.00  0.00     0.251 C 
BRANCH  15  16
ATOM     16  C   UNL d   1       8.564   4.828  -9.944  0.00  0.00     0.037 C 
BRANCH  16  17
ATOM     17  C   UNL d   1       8.866   5.588  -8.661  0.00  0.00     0.029 C 
BRANCH  17  18
ATOM     18  C   UNL d   1       9.990   6.611  -8.839  0.00  0.00     0.129 C 
BRANCH  18  19
ATOM     19  N   UNL d   1      10.510   7.027  -7.543  0.00  0.00    -0.233 NA
ATOM     20  C   UNL d   1      10.408   8.253  -7.024  0.00  0.00     0.298 C 
ATOM     21  O   UNL d   1       9.865   9.191  -7.600  0.00  0.00    -0.263 OA
BRANCH  20  22
ATOM     22  C   UNL d   1      11.021   8.438  -5.695  0.00  0.00     0.157 A 
ATOM     23  O   UNL d   1      11.458   7.345  -5.000  0.00  0.00    -0.300 OA
ATOM     24  C   UNL d   1      11.964   7.802  -3.825  0.00  0.00     0.123 A 
ATOM     25  C   UNL d   1      11.861   9.165  -3.749  0.00  0.00     0.029 A 
ATOM     26  C   UNL d   1      11.246   9.574  -4.968  0.00  0.00     0.032 A 
ENDBRANCH  20  22
ENDBRANCH  18  19
ENDBRANCH  17  18
ENDBRANCH  16  17
ENDBRANCH  15  16
ENDBRANCH  11  15
BRANCH   1  27
ATOM     27  O   UNL d   1       8.905  -0.184 -17.259  0.00  0.00    -0.328 OA
ATOM     28  C   UNL d   1       9.832  -1.023 -17.932  0.00  0.00     0.181 C 
ENDBRANCH   1  27
TORSDOF 7
