REMARK  4 active torsions:
REMARK  status: ('A' for Active; 'I' for Inactive)
REMARK       I    between atoms: N_10  and  C_11 
REMARK    1  A    between atoms: C_11  and  C_13 
REMARK    2  A    between atoms: C_13  and  N_14 
REMARK    3  A    between atoms: N_17  and  C_18 
REMARK    4  A    between atoms: C_18  and  C_19 
ROOT
ATOM      1  N   UNL d   1       9.600   7.218 -11.280  0.00  0.00     0.151 N 
ATOM      2  C   UNL d   1       9.603   8.659 -11.006  0.00  0.00     0.286 C 
ATOM      3  C   UNL d   1      10.808   9.046 -10.130  0.00  0.00     0.286 C 
ATOM      4  N   UNL d   1      10.751   8.321  -8.845  0.00  0.00     0.146 N 
ATOM      5  C   UNL d   1      10.704   6.904  -9.135  0.00  0.00     0.286 C 
ATOM      6  C   UNL d   1       9.548   6.529  -9.984  0.00  0.00     0.286 C 
ENDROOT
BRANCH   1   7
ATOM      7  C   UNL d   1       8.445   6.824 -12.046  0.00  0.00     0.337 C 
BRANCH   7   8
ATOM      8  C   UNL d   1       8.600   5.499 -12.831  0.00  0.00     0.271 C 
ATOM      9  N   UNL d   1       7.551   4.610 -12.818  0.00  0.00    -0.299 N 
ATOM     10  C   UNL d   1       6.391   4.657 -11.889  0.00  0.00     0.093 A 
ATOM     11  C   UNL d   1       7.437   3.454 -13.655  0.00  0.00     0.058 A 
ATOM     12  C   UNL d   1       5.481   5.928 -11.941  0.00  0.00     0.025 C 
ATOM     13  C   UNL d   1       5.513   3.409 -12.266  0.00  0.00     0.051 A 
ATOM     14  C   UNL d   1       6.253   2.739 -13.366  0.00  0.00    -0.004 A 
ATOM     15  C   UNL d   1       5.942   1.539 -14.022  0.00  0.00    -0.003 A 
ATOM     16  C   UNL d   1       6.808   1.055 -15.021  0.00  0.00    -0.000 A 
ATOM     17  C   UNL d   1       7.985   1.777 -15.339  0.00  0.00     0.002 A 
ATOM     18  C   UNL d   1       8.298   2.970 -14.655  0.00  0.00     0.017 A 
ATOM     19  O   UNL d   1       9.621   5.302 -13.490  0.00  0.00    -0.270 OA
ENDBRANCH   7   8
ENDBRANCH   1   7
BRANCH   4  20
ATOM     20  C   UNL d   1      11.903   8.643  -7.997  0.00  0.00     0.277 C 
BRANCH  20  21
ATOM     21  C   UNL d   1      11.748   8.286  -6.534  0.00  0.00     0.011 C 
ATOM     22  C   UNL d   1      12.033   9.270  -5.508  0.00  0.00    -0.002 C 
ATOM     23  C   UNL d   1      11.982   8.892  -4.161  0.00  0.00     0.011 C 
ATOM     24  C   UNL d   1      11.631   7.581  -3.796  0.00  0.00     0.058 C 
ATOM     25  C   UNL d   1      11.348   6.634  -4.814  0.00  0.00     0.011 C 
ATOM     26 CL   UNL d   1      11.518   7.058  -2.151  0.00  0.00    -0.082 Cl
ATOM     27  C   UNL d   1      11.495   6.961  -6.130  0.00  0.00    -0.002 C 
ENDBRANCH  20  21
ENDBRANCH   4  20
TORSDOF 4
