REMARK  5 active torsions:
REMARK  status: ('A' for Active; 'I' for Inactive)
REMARK    1  A    between atoms: C_2  and  N_3 
REMARK    2  A    between atoms: C_7  and  C_8 
REMARK    3  A    between atoms: C_8  and  N_9 
REMARK       I    between atoms: N_9  and  C_10 
REMARK    4  A    between atoms: C_10  and  C_12 
REMARK    5  A    between atoms: C_19  and  O_20 
ROOT
ATOM      1  N   UNL d   1      10.992   6.771  -7.743  0.00  0.00    -0.232 NA
ATOM      2  C   UNL d   1       9.704   6.685  -8.071  0.00  0.00     0.277 C 
ATOM      3  O   UNL d   1       8.803   6.549  -7.238  0.00  0.00    -0.265 OA
ENDROOT
BRANCH   2   4
ATOM      4  C   UNL d   1       9.462   6.643  -9.547  0.00  0.00     0.088 C 
ATOM      5  C   UNL d   1       8.870   5.506 -10.156  0.00  0.00     0.124 C 
ATOM      6  C   UNL d   1       8.589   5.503 -11.532  0.00  0.00     0.153 C 
ATOM      7  C   UNL d   1       8.863   6.625 -12.325  0.00  0.00     0.030 C 
ATOM      8  O   UNL d   1       8.078   4.394 -12.131  0.00  0.00    -0.188 OA
ATOM      9  C   UNL d   1       9.452   7.758 -11.732  0.00  0.00     0.009 C 
ATOM     10  C   UNL d   1       9.830   7.730 -10.373  0.00  0.00     0.041 C 
ATOM     11 BR   UNL d   1      10.850   9.177  -9.648  0.00  0.00    -0.049 Br
BRANCH   5  12
ATOM     12  O   UNL d   1       8.594   4.390  -9.414  0.00  0.00    -0.326 OA
ATOM     13  C   UNL d   1       9.742   3.656  -9.023  0.00  0.00     0.181 C 
ENDBRANCH   5  12
ENDBRANCH   2   4
BRANCH   1  14
ATOM     14  C   UNL d   1      11.515   6.546  -6.412  0.00  0.00     0.162 C 
BRANCH  14  15
ATOM     15  C   UNL d   1      11.242   7.756  -5.486  0.00  0.00     0.243 C 
ATOM     16  N   UNL d   1      12.015   7.740  -4.250  0.00  0.00     0.137 N 
ATOM     17  C   UNL d   1      11.908   9.096  -3.756  0.00  0.00     0.250 C 
ATOM     18  C   UNL d   1      12.053   9.957  -5.012  0.00  0.00     0.037 C 
ATOM     19  C   UNL d   1      11.614   9.091  -6.148  0.00  0.00     0.037 C 
BRANCH  16  20
ATOM     20  C   UNL d   1      11.568   6.737  -3.269  0.00  0.00     0.250 C 
ATOM     21  C   UNL d   1      12.624   6.493  -2.215  0.00  0.00     0.037 C 
ENDBRANCH  16  20
ENDBRANCH  14  15
ENDBRANCH   1  14
TORSDOF 5
