REMARK  6 active torsions:
REMARK  status: ('A' for Active; 'I' for Inactive)
REMARK    1  A    between atoms: C_8  and  O_9 
REMARK    2  A    between atoms: O_9  and  C_10 
REMARK    3  A    between atoms: C_10  and  C_11 
REMARK    4  A    between atoms: C_14  and  C_15 
REMARK    5  A    between atoms: C_15  and  N_16 
REMARK    6  A    between atoms: N_19  and  C_20 
ROOT
ATOM      1  C   UNL d   1       9.397   6.497 -10.082  0.00  0.00     0.030 C 
ATOM      2  C   UNL d   1       9.000   5.018  -9.954  0.00  0.00     0.003 C 
ATOM      3  C   UNL d   1       7.864   4.673 -10.947  0.00  0.00     0.002 C 
ATOM      4  C   UNL d   1       8.310   4.991 -12.363  0.00  0.00     0.033 C 
ATOM      5  C   UNL d   1       8.603   6.466 -12.500  0.00  0.00     0.002 C 
ATOM      6  C   UNL d   1       9.715   6.864 -11.524  0.00  0.00     0.003 C 
ENDROOT
BRANCH   4   7
ATOM      7  C   UNL d   1       7.199   4.600 -13.338  0.00  0.00     0.250 C 
BRANCH   7   8
ATOM      8  N   UNL d   1       7.202   3.175 -13.611  0.00  0.00     0.141 N 
ATOM      9  C   UNL d   1       5.934   2.877 -14.259  0.00  0.00     0.274 C 
ATOM     10  C   UNL d   1       5.843   1.357 -14.554  0.00  0.00     0.137 C 
ATOM     11  N   UNL d   1       6.974   0.883 -15.323  0.00  0.00    -0.344 N 
ATOM     12  C   UNL d   1       8.261   1.236 -14.758  0.00  0.00     0.137 C 
ATOM     13  C   UNL d   1       8.312   2.753 -14.489  0.00  0.00     0.274 C 
BRANCH  11  14
ATOM     14  C   UNL d   1       6.833   0.119 -16.518  0.00  0.00     0.068 A 
ATOM     15  C   UNL d   1       5.871  -0.917 -16.677  0.00  0.00     0.084 A 
ATOM     16  C   UNL d   1       5.799  -1.621 -17.907  0.00  0.00     0.070 A 
ATOM     17 CL   UNL d   1       4.826  -1.462 -15.408  0.00  0.00    -0.080 Cl
ATOM     18  C   UNL d   1       6.691  -1.323 -18.948  0.00  0.00     0.012 A 
ATOM     19 CL   UNL d   1       4.661  -2.894 -18.135  0.00  0.00    -0.081 Cl
ATOM     20  C   UNL d   1       7.651  -0.316 -18.795  0.00  0.00     0.002 A 
ATOM     21  C   UNL d   1       7.714   0.406 -17.583  0.00  0.00     0.018 A 
ENDBRANCH  11  14
ENDBRANCH   7   8
ENDBRANCH   4   7
BRANCH   1  22
ATOM     22  C   UNL d   1      10.503   6.991  -9.164  0.00  0.00     0.149 C 
BRANCH  22  23
ATOM     23  O   UNL d   1      10.153   6.590  -7.847  0.00  0.00    -0.331 OA
BRANCH  23  24
ATOM     24  C   UNL d   1      10.461   7.419  -6.819  0.00  0.00     0.096 A 
ATOM     25  C   UNL d   1      10.314   8.824  -6.860  0.00  0.00     0.024 A 
ATOM     26  C   UNL d   1      10.743   9.618  -5.788  0.00  0.00    -0.001 A 
ATOM     27  C   UNL d   1      11.242   9.006  -4.641  0.00  0.00    -0.004 A 
ATOM     28  C   UNL d   1      11.477   9.799  -3.381  0.00  0.00     0.038 C 
ATOM     29  C   UNL d   1      11.345   7.605  -4.591  0.00  0.00     0.082 A 
ATOM     30  C   UNL d   1      12.506   9.134  -2.492  0.00  0.00     0.095 C 
ATOM     31  C   UNL d   1      12.283   7.644  -2.393  0.00  0.00     0.256 C 
ATOM     32  O   UNL d   1      12.665   7.036  -1.449  0.00  0.00    -0.270 OA
ATOM     33  N   UNL d   1      11.744   6.965  -3.392  0.00  0.00    -0.212 NA
ATOM     34  C   UNL d   1      10.943   6.796  -5.657  0.00  0.00     0.043 A 
ENDBRANCH  23  24
ENDBRANCH  22  23
ENDBRANCH   1  22
TORSDOF 6
