REMARK  7 active torsions:
REMARK  status: ('A' for Active; 'I' for Inactive)
REMARK    1  A    between atoms: O_2  and  C_3 
REMARK    2  A    between atoms: N_9  and  C_10 
REMARK    3  A    between atoms: C_10  and  C_11 
REMARK    4  A    between atoms: C_11  and  C_12 
REMARK    5  A    between atoms: C_12  and  C_13 
REMARK    6  A    between atoms: C_13  and  N_14 
REMARK    7  A    between atoms: N_17  and  C_18 
ROOT
ATOM      1  C   UNL d   1      11.262   4.400 -15.251  0.00  0.00     0.251 C 
ENDROOT
BRANCH   1   2
ATOM      2  C   UNL d   1      10.476   4.847 -14.011  0.00  0.00     0.037 C 
BRANCH   2   3
ATOM      3  C   UNL d   1       9.088   4.206 -13.880  0.00  0.00     0.029 C 
BRANCH   3   4
ATOM      4  C   UNL d   1       8.065   5.137 -13.190  0.00  0.00     0.133 C 
BRANCH   4   5
ATOM      5  N   UNL d   1       8.527   5.612 -11.893  0.00  0.00    -0.201 N 
ATOM      6  N   UNL d   1       8.400   4.796 -10.822  0.00  0.00    -0.147 NA
ATOM      7  C   UNL d   1       8.945   5.476  -9.874  0.00  0.00     0.172 A 
ATOM      8  C   UNL d   1       9.113   5.199  -8.463  0.00  0.00     0.039 A 
ATOM      9  N   UNL d   1       9.456   6.685 -10.336  0.00  0.00    -0.222 N 
ATOM     10  C   UNL d   1       9.723   6.107  -7.665  0.00  0.00     0.007 A 
ATOM     11  C   UNL d   1      10.257   7.349  -8.183  0.00  0.00     0.043 A 
ATOM     12  C   UNL d   1      10.103   7.611  -9.499  0.00  0.00     0.168 A 
ATOM     13  C   UNL d   1       9.120   6.788 -11.622  0.00  0.00     0.354 A 
ATOM     14  O   UNL d   1       9.345   7.703 -12.417  0.00  0.00    -0.244 OA
BRANCH  12  15
ATOM     15  O   UNL d   1      10.555   8.704 -10.194  0.00  0.00    -0.313 OA
ATOM     16  C   UNL d   1      11.459   9.545  -9.515  0.00  0.00     0.183 C 
ENDBRANCH  12  15
ENDBRANCH   4   5
ENDBRANCH   3   4
ENDBRANCH   2   3
ENDBRANCH   1   2
BRANCH   1  17
ATOM     17  N   UNL d   1      12.444   5.234 -15.463  0.00  0.00     0.141 N 
ATOM     18  C   UNL d   1      13.248   4.606 -16.517  0.00  0.00     0.274 C 
ATOM     19  C   UNL d   1      14.533   5.411 -16.774  0.00  0.00     0.137 C 
ATOM     20  N   UNL d   1      14.220   6.799 -17.078  0.00  0.00    -0.344 N 
ATOM     21  C   UNL d   1      13.329   7.452 -16.132  0.00  0.00     0.137 C 
ATOM     22  C   UNL d   1      12.079   6.591 -15.915  0.00  0.00     0.274 C 
BRANCH  20  23
ATOM     23  C   UNL d   1      14.725   7.463 -18.213  0.00  0.00     0.057 A 
ATOM     24  C   UNL d   1      16.082   7.296 -18.624  0.00  0.00     0.022 A 
ATOM     25  C   UNL d   1      16.502   8.021 -19.790  0.00  0.00     0.031 A 
ATOM     26  C   UNL d   1      17.177   6.529 -18.050  0.00  0.00     0.009 A 
ATOM     27  C   UNL d   1      15.632   8.858 -20.502  0.00  0.00     0.007 A 
ATOM     28  S   UNL d   1      18.192   7.707 -20.150  0.00  0.00    -0.086 SA
ATOM     29  C   UNL d   1      14.306   9.010 -20.075  0.00  0.00     0.002 A 
ATOM     30  C   UNL d   1      13.859   8.312 -18.939  0.00  0.00     0.017 A 
ATOM     31  C   UNL d   1      18.329   6.657 -18.777  0.00  0.00     0.035 A 
ENDBRANCH  20  23
ENDBRANCH   1  17
TORSDOF 7
