REMARK  10 active torsions:
REMARK  status: ('A' for Active; 'I' for Inactive)
REMARK    1  A    between atoms: C_8  and  O_9 
REMARK    2  A    between atoms: O_9  and  C_10 
REMARK    3  A    between atoms: C_10  and  C_11 
REMARK    4  A    between atoms: C_11  and  C_12 
REMARK    5  A    between atoms: C_12  and  C_13 
REMARK    6  A    between atoms: C_13  and  N_14 
REMARK    7  A    between atoms: N_17  and  C_18 
REMARK    8  A    between atoms: C_23  and  O_24 
REMARK    9  A    between atoms: O_24  and  C_25 
REMARK   10  A    between atoms: C_25  and  C_26 
ROOT
ATOM      1  N   UNL d   1       8.561   4.718 -12.136  0.00  0.00     0.141 N 
ATOM      2  C   UNL d   1       9.825   3.974 -12.178  0.00  0.00     0.274 C 
ATOM      3  C   UNL d   1       9.950   3.139 -13.440  0.00  0.00     0.137 C 
ATOM      4  N   UNL d   1       9.838   4.003 -14.594  0.00  0.00    -0.343 N 
ATOM      5  C   UNL d   1       8.664   4.851 -14.619  0.00  0.00     0.137 C 
ATOM      6  C   UNL d   1       8.525   5.631 -13.292  0.00  0.00     0.274 C 
ENDROOT
BRANCH   1   7
ATOM      7  C   UNL d   1       8.454   5.524 -10.909  0.00  0.00     0.251 C 
BRANCH   7   8
ATOM      8  C   UNL d   1       8.949   4.804  -9.618  0.00  0.00     0.038 C 
BRANCH   8   9
ATOM      9  C   UNL d   1       9.867   5.718  -8.802  0.00  0.00     0.035 C 
BRANCH   9  10
ATOM     10  C   UNL d   1       9.120   6.873  -8.148  0.00  0.00     0.149 C 
BRANCH  10  11
ATOM     11  O   UNL d   1       9.953   8.019  -8.044  0.00  0.00    -0.331 OA
BRANCH  11  12
ATOM     12  C   UNL d   1      10.532   8.256  -6.830  0.00  0.00     0.096 A 
ATOM     13  C   UNL d   1      10.764   9.604  -6.518  0.00  0.00     0.024 A 
ATOM     14  C   UNL d   1      11.304   9.987  -5.290  0.00  0.00     0.004 A 
ATOM     15  C   UNL d   1      11.651   8.999  -4.364  0.00  0.00     0.018 A 
ATOM     16  C   UNL d   1      12.228   9.312  -3.066  0.00  0.00     0.006 A 
ATOM     17  C   UNL d   1      11.451   7.638  -4.669  0.00  0.00     0.087 A 
ATOM     18  C   UNL d   1      12.560   8.345  -2.191  0.00  0.00     0.063 A 
ATOM     19  C   UNL d   1      12.352   6.936  -2.511  0.00  0.00     0.279 A 
ATOM     20  O   UNL d   1      12.655   6.019  -1.761  0.00  0.00    -0.265 OA
ATOM     21  N   UNL d   1      11.814   6.669  -3.711  0.00  0.00    -0.208 NA
ATOM     22  C   UNL d   1      10.885   7.253  -5.898  0.00  0.00     0.043 A 
ENDBRANCH  11  12
ENDBRANCH  10  11
ENDBRANCH   9  10
ENDBRANCH   8   9
ENDBRANCH   7   8
ENDBRANCH   1   7
BRANCH   4  23
ATOM     23  C   UNL d   1      10.799   3.972 -15.617  0.00  0.00     0.079 A 
ATOM     24  C   UNL d   1      11.233   2.733 -16.153  0.00  0.00     0.110 A 
ATOM     25  C   UNL d   1      12.209   2.746 -17.183  0.00  0.00     0.026 A 
ATOM     26  C   UNL d   1      12.746   3.956 -17.648  0.00  0.00     0.002 A 
ATOM     27  C   UNL d   1      12.324   5.177 -17.098  0.00  0.00     0.002 A 
ATOM     28  C   UNL d   1      11.350   5.182 -16.084  0.00  0.00     0.019 A 
BRANCH  24  29
ATOM     29  O   UNL d   1      10.676   1.573 -15.648  0.00  0.00    -0.326 OA
BRANCH  29  30
ATOM     30  C   UNL d   1      10.874   0.345 -16.327  0.00  0.00     0.187 C 
BRANCH  30  31
ATOM     31  C   UNL d   1       9.955   0.274 -17.551  0.00  0.00     0.226 C 
ATOM     32  F   UNL d   1      10.126  -0.889 -18.180  0.00  0.00    -0.232 F 
ENDBRANCH  30  31
ENDBRANCH  29  30
ENDBRANCH  24  29
ENDBRANCH   4  23
TORSDOF 10
