REMARK  0 active torsions:
REMARK  status: ('A' for Active; 'I' for Inactive)
ROOT
ATOM      1  C   UNL d   1       7.285   5.632 -11.236  0.00  0.00     0.285 C 
ATOM      2  N   UNL d   1       7.178   4.995 -12.542  0.00  0.00     0.140 N 
ATOM      3  C   UNL d   1       6.156   3.956 -12.465  0.00  0.00     0.255 C 
ATOM      4  C   UNL d   1       5.952   3.306 -13.838  0.00  0.00     0.057 C 
ATOM      5  C   UNL d   1       7.263   2.772 -14.432  0.00  0.00    -0.040 C 
ATOM      6  C   UNL d   1       7.359   1.599 -15.107  0.00  0.00    -0.007 C 
ATOM      7  C   UNL d   1       6.223   0.667 -15.257  0.00  0.00    -0.004 A 
ATOM      8  C   UNL d   1       5.630   0.060 -14.132  0.00  0.00    -0.000 A 
ATOM      9  C   UNL d   1       4.533  -0.806 -14.305  0.00  0.00    -0.000 A 
ATOM     10  C   UNL d   1       4.073  -1.143 -15.590  0.00  0.00    -0.000 A 
ATOM     11  C   UNL d   1       4.680  -0.575 -16.717  0.00  0.00    -0.004 A 
ATOM     12  C   UNL d   1       5.748   0.338 -16.554  0.00  0.00    -0.014 A 
ATOM     13  C   UNL d   1       6.361   0.990 -17.782  0.00  0.00     0.096 C 
ATOM     14  C   UNL d   1       7.784   0.504 -18.037  0.00  0.00     0.183 C 
ATOM     15  O   UNL d   1       8.077   0.068 -19.152  0.00  0.00    -0.290 OA
ATOM     16  C   UNL d   1       8.752   0.607 -16.946  0.00  0.00     0.064 A 
ATOM     17  S   UNL d   1      10.378   0.059 -17.244  0.00  0.00    -0.084 SA
ATOM     18  C   UNL d   1      10.842   0.455 -15.611  0.00  0.00     0.035 A 
ATOM     19  C   UNL d   1       9.800   0.943 -14.878  0.00  0.00     0.007 A 
ATOM     20  C   UNL d   1       8.620   1.077 -15.655  0.00  0.00     0.009 A 
ATOM     21  C   UNL d   1       8.414   3.780 -14.285  0.00  0.00     0.057 C 
ATOM     22  C   UNL d   1       8.463   4.387 -12.878  0.00  0.00     0.255 C 
ENDROOT
TORSDOF 0
