REMARK  5 active torsions:
REMARK  status: ('A' for Active; 'I' for Inactive)
REMARK    1  A    between atoms: C_2  and  C_3 
REMARK    2  A    between atoms: C_3  and  C_4 
REMARK    3  A    between atoms: C_4  and  N_5 
REMARK    4  A    between atoms: N_5  and  C_6 
REMARK    5  A    between atoms: C_14  and  O_15 
ROOT
ATOM      1  C   UNL d   1      10.184   7.514  -8.628  0.00  0.00     0.261 C 
ATOM      2  C   UNL d   1       9.251   6.923  -7.560  0.00  0.00     0.041 C 
ATOM      3  C   UNL d   1      10.044   6.552  -6.321  0.00  0.00     0.030 C 
ATOM      4  C   UNL d   1      10.982   7.622  -5.827  0.00  0.00    -0.004 A 
ATOM      5  C   UNL d   1      11.361   8.684  -6.687  0.00  0.00    -0.022 A 
ATOM      6  C   UNL d   1      12.238   9.674  -6.204  0.00  0.00    -0.004 A 
ATOM      7  C   UNL d   1      12.762   9.573  -4.906  0.00  0.00     0.002 A 
ATOM      8  C   UNL d   1      12.377   8.556  -4.049  0.00  0.00     0.024 A 
ATOM      9  C   UNL d   1      11.503   7.548  -4.510  0.00  0.00     0.090 A 
ATOM     10  C   UNL d   1      10.818   8.812  -8.102  0.00  0.00     0.062 C 
ENDROOT
BRANCH   1  11
ATOM     11  N   UNL d   1       9.466   7.787  -9.864  0.00  0.00     0.337 N 
BRANCH  11  12
ATOM     12  C   UNL d   1       9.567   6.715 -10.833  0.00  0.00     0.290 C 
BRANCH  12  13
ATOM     13  C   UNL d   1       8.636   5.554 -10.443  0.00  0.00     0.038 C 
BRANCH  13  14
ATOM     14  C   UNL d   1       8.186   4.712 -11.629  0.00  0.00     0.002 C 
ATOM     15  C   UNL d   1       9.357   3.977 -12.296  0.00  0.00     0.000 C 
ENDBRANCH  13  14
ENDBRANCH  12  13
ENDBRANCH  11  12
ENDBRANCH   1  11
BRANCH   9  16
ATOM     16  O   UNL d   1      11.173   6.468  -3.720  0.00  0.00    -0.328 OA
ATOM     17  C   UNL d   1      11.687   6.439  -2.396  0.00  0.00     0.181 C 
ENDBRANCH   9  16
TORSDOF 5
