REMARK  5 active torsions:
REMARK  status: ('A' for Active; 'I' for Inactive)
REMARK    1  A    between atoms: C_6  and  C_7 
REMARK    2  A    between atoms: N_18  and  C_19 
REMARK    3  A    between atoms: C_19  and  C_20 
REMARK    4  A    between atoms: C_20  and  N_21 
REMARK    5  A    between atoms: N_24  and  C_25 
ROOT
ATOM      1  O   UNL d   1      10.661   5.178 -13.337  0.00  0.00    -0.244 OA
ATOM      2  C   UNL d   1       9.571   4.609 -13.420  0.00  0.00     0.354 A 
ATOM      3  N   UNL d   1       9.450   3.606 -14.310  0.00  0.00    -0.173 NA
ATOM      4  C   UNL d   1       8.310   2.905 -14.455  0.00  0.00     0.172 A 
ATOM      5  N   UNL d   1       8.072   1.859 -15.313  0.00  0.00    -0.227 NA
ATOM      6  C   UNL d   1       6.773   1.416 -15.112  0.00  0.00     0.083 A 
ATOM      7  C   UNL d   1       6.242   2.183 -14.095  0.00  0.00     0.027 A 
ATOM      8  C   UNL d   1       7.206   3.160 -13.714  0.00  0.00     0.094 A 
ATOM      9  C   UNL d   1       7.273   4.262 -12.737  0.00  0.00     0.267 A 
ATOM     10  O   UNL d   1       6.276   4.519 -12.057  0.00  0.00    -0.267 OA
ATOM     11  N   UNL d   1       8.471   4.928 -12.653  0.00  0.00    -0.245 N 
ENDROOT
BRANCH  11  12
ATOM     12  C   UNL d   1       8.614   5.992 -11.639  0.00  0.00     0.149 C 
BRANCH  12  13
ATOM     13  C   UNL d   1       9.225   5.441 -10.337  0.00  0.00     0.275 C 
BRANCH  13  14
ATOM     14  N   UNL d   1       9.279   6.503  -9.330  0.00  0.00     0.143 N 
ATOM     15  C   UNL d   1      10.638   7.036  -9.236  0.00  0.00     0.274 C 
ATOM     16  C   UNL d   1      10.743   8.150  -8.183  0.00  0.00     0.137 C 
ATOM     17  N   UNL d   1      10.246   7.679  -6.893  0.00  0.00    -0.344 N 
ATOM     18  C   UNL d   1       8.920   7.076  -6.942  0.00  0.00     0.137 C 
ATOM     19  C   UNL d   1       8.860   5.981  -8.021  0.00  0.00     0.274 C 
BRANCH  17  20
ATOM     20  C   UNL d   1      10.973   7.821  -5.695  0.00  0.00     0.067 A 
ATOM     21  C   UNL d   1      11.603   9.035  -5.313  0.00  0.00     0.073 A 
ATOM     22  C   UNL d   1      12.368   9.101  -4.130  0.00  0.00     0.013 A 
ATOM     23 CL   UNL d   1      11.459  10.476  -6.241  0.00  0.00    -0.081 Cl
ATOM     24  C   UNL d   1      12.476   7.995  -3.279  0.00  0.00     0.001 A 
ATOM     25  C   UNL d   1      11.854   6.791  -3.631  0.00  0.00     0.002 A 
ATOM     26  C   UNL d   1      11.108   6.714  -4.825  0.00  0.00     0.018 A 
ENDBRANCH  17  20
ENDBRANCH  13  14
ENDBRANCH  12  13
ENDBRANCH  11  12
BRANCH   6  27
ATOM     27  C   UNL d   1       6.221   0.325 -15.919  0.00  0.00     0.018 A 
ATOM     28  C   UNL d   1       6.798  -0.013 -17.166  0.00  0.00     0.002 A 
ATOM     29  C   UNL d   1       6.272  -1.062 -17.940  0.00  0.00     0.011 A 
ATOM     30  C   UNL d   1       5.154  -1.784 -17.487  0.00  0.00     0.058 A 
ATOM     31  C   UNL d   1       4.558  -1.450 -16.256  0.00  0.00     0.011 A 
ATOM     32 CL   UNL d   1       4.521  -3.070 -18.447  0.00  0.00    -0.082 Cl
ATOM     33  C   UNL d   1       5.088  -0.398 -15.479  0.00  0.00     0.002 A 
ENDBRANCH   6  27
TORSDOF 5
