REMARK  7 active torsions:
REMARK  status: ('A' for Active; 'I' for Inactive)
REMARK    1  A    between atoms: O_2  and  C_3 
REMARK    2  A    between atoms: C_9  and  C_10 
REMARK    3  A    between atoms: C_10  and  C_11 
REMARK    4  A    between atoms: C_11  and  N_12 
REMARK    5  A    between atoms: N_12  and  C_13 
REMARK    6  A    between atoms: C_13  and  C_14 
REMARK    7  A    between atoms: C_17  and  C_18 
ROOT
ATOM      1  N   UNL d   1       8.658   5.622  -9.289  0.00  0.00     0.346 N 
ENDROOT
BRANCH   1   2
ATOM      2  C   UNL d   1       8.960   5.264  -7.928  0.00  0.00     0.295 C 
BRANCH   2   3
ATOM      3  C   UNL d   1       8.646   6.390  -6.919  0.00  0.00     0.066 C 
BRANCH   3   4
ATOM      4  C   UNL d   1       9.600   7.520  -7.062  0.00  0.00     0.001 A 
ATOM      5  C   UNL d   1       9.664   8.398  -8.110  0.00  0.00     0.095 A 
ATOM      6  N   UNL d   1      10.712   9.260  -7.885  0.00  0.00    -0.244 NA
ATOM      7  C   UNL d   1      11.266   9.055  -6.645  0.00  0.00     0.081 A 
ATOM      8  C   UNL d   1      12.252   9.744  -5.932  0.00  0.00     0.021 A 
ATOM      9  C   UNL d   1      10.620   7.905  -6.124  0.00  0.00     0.017 A 
ATOM     10  C   UNL d   1      12.649   9.269  -4.665  0.00  0.00     0.026 A 
ATOM     11  C   UNL d   1      12.070   8.110  -4.126  0.00  0.00     0.094 A 
ATOM     12  C   UNL d   1      11.070   7.428  -4.867  0.00  0.00     0.025 A 
BRANCH  11  13
ATOM     13  O   UNL d   1      12.536   7.705  -2.891  0.00  0.00    -0.328 OA
ATOM     14  C   UNL d   1      12.117   6.439  -2.412  0.00  0.00     0.181 C 
ENDBRANCH  11  13
ENDBRANCH   3   4
ENDBRANCH   2   3
ENDBRANCH   1   2
BRANCH   1  15
ATOM     15  C   UNL d   1       9.640   5.033 -10.163  0.00  0.00     0.341 C 
BRANCH  15  16
ATOM     16  C   UNL d   1       9.238   5.115 -11.582  0.00  0.00     0.114 A 
ATOM     17  O   UNL d   1       9.764   4.177 -12.425  0.00  0.00    -0.309 OA
ATOM     18  C   UNL d   1       9.283   4.456 -13.667  0.00  0.00     0.100 A 
ATOM     19  C   UNL d   1       8.461   5.537 -13.607  0.00  0.00     0.026 A 
ATOM     20  C   UNL d   1       8.433   5.976 -12.263  0.00  0.00     0.024 A 
BRANCH  18  21
ATOM     21  C   UNL d   1       9.701   3.618 -14.782  0.00  0.00     0.025 A 
ATOM     22  C   UNL d   1       9.983   2.257 -14.567  0.00  0.00     0.029 A 
ATOM     23  C   UNL d   1      10.349   1.413 -15.629  0.00  0.00     0.131 A 
ATOM     24  C   UNL d   1      10.467   1.934 -16.931  0.00  0.00     0.027 A 
ATOM     25  O   UNL d   1      10.560   0.090 -15.390  0.00  0.00    -0.190 OA
ATOM     26  C   UNL d   1      10.188   3.296 -17.163  0.00  0.00     0.002 A 
ATOM     27  C   UNL d   1       9.806   4.134 -16.094  0.00  0.00     0.002 A 
ENDBRANCH  18  21
ENDBRANCH  15  16
ENDBRANCH   1  15
TORSDOF 7
