REMARK  7 active torsions:
REMARK  status: ('A' for Active; 'I' for Inactive)
REMARK    1  A    between atoms: C_2  and  C_3 
REMARK       I    between atoms: C_2  and  N_9 
REMARK    2  A    between atoms: C_3  and  C_4 
REMARK    3  A    between atoms: N_9  and  C_10 
REMARK    4  A    between atoms: C_13  and  C_14 
REMARK    5  A    between atoms: C_14  and  C_15 
REMARK    6  A    between atoms: C_15  and  N_16 
REMARK    7  A    between atoms: C_19  and  C_20 
ROOT
ATOM      1  C   UNL d   1       8.864   4.762 -11.354  0.00  0.00     0.035 C 
ENDROOT
BRANCH   1   2
ATOM      2  C   UNL d   1       8.879   5.861 -10.297  0.00  0.00     0.002 C 
ATOM      3  C   UNL d   1       9.002   5.240  -8.893  0.00  0.00     0.002 C 
ATOM      4  C   UNL d   1       9.104   6.319  -7.804  0.00  0.00     0.024 C 
ATOM      5  C   UNL d   1      10.254   7.299  -8.053  0.00  0.00     0.106 C 
ATOM      6  C   UNL d   1      10.116   7.949  -9.432  0.00  0.00     0.024 C 
ATOM      7  C   UNL d   1      10.024   6.889 -10.519  0.00  0.00     0.002 C 
BRANCH   5   8
ATOM      8  N   UNL d   1      10.241   8.323  -7.023  0.00  0.00    -0.240 NA
ATOM      9  C   UNL d   1      11.283   9.068  -6.680  0.00  0.00     0.254 C 
ATOM     10  O   UNL d   1      12.335   9.117  -7.331  0.00  0.00    -0.271 OA
BRANCH   9  11
ATOM     11  C   UNL d   1      11.177   9.826  -5.374  0.00  0.00     0.119 C 
BRANCH  11  12
ATOM     12  C   UNL d   1      12.199   9.314  -4.330  0.00  0.00     0.125 C 
ATOM     13  O   UNL d   1      12.182   7.890  -4.227  0.00  0.00    -0.356 OA
ATOM     14  C   UNL d   1      12.085   7.457  -2.874  0.00  0.00     0.142 C 
ATOM     15  C   UNL d   1      12.390   8.694  -2.043  0.00  0.00     0.035 C 
ATOM     16  C   UNL d   1      11.852   9.788  -2.934  0.00  0.00     0.033 C 
ENDBRANCH  11  12
ENDBRANCH   9  11
ENDBRANCH   5   8
ENDBRANCH   1   2
BRANCH   1  17
ATOM     17  C   UNL d   1       8.957   5.238 -12.817  0.00  0.00     0.250 C 
BRANCH  17  18
ATOM     18  N   UNL d   1       9.158   4.174 -13.789  0.00  0.00     0.137 N 
ATOM     19  C   UNL d   1       9.374   4.799 -15.097  0.00  0.00     0.251 C 
ATOM     20  C   UNL d   1       9.475   3.723 -16.190  0.00  0.00     0.040 C 
ATOM     21  C   UNL d   1      10.623   2.746 -15.889  0.00  0.00     0.026 C 
ATOM     22  C   UNL d   1      10.490   2.218 -14.461  0.00  0.00     0.040 C 
ATOM     23  C   UNL d   1      10.346   3.368 -13.474  0.00  0.00     0.251 C 
BRANCH  21  24
ATOM     24  C   UNL d   1      10.650   1.596 -16.891  0.00  0.00    -0.024 A 
ATOM     25  C   UNL d   1      11.684   1.474 -17.842  0.00  0.00    -0.001 A 
ATOM     26  C   UNL d   1      11.706   0.436 -18.757  0.00  0.00     0.090 A 
ATOM     27  C   UNL d   1      12.859   2.363 -18.073  0.00  0.00     0.061 A 
ATOM     28  C   UNL d   1      10.689  -0.536 -18.773  0.00  0.00     0.024 A 
ATOM     29  O   UNL d   1      12.781   0.496 -19.599  0.00  0.00    -0.331 OA
ATOM     30  C   UNL d   1       9.651  -0.442 -17.829  0.00  0.00     0.002 A 
ATOM     31  C   UNL d   1       9.627   0.622 -16.897  0.00  0.00    -0.004 A 
ATOM     32  C   UNL d   1      13.613   1.592 -19.183  0.00  0.00     0.154 A 
ENDBRANCH  21  24
ENDBRANCH  17  18
ENDBRANCH   1  17
TORSDOF 7
