REMARK  10 active torsions:
REMARK  status: ('A' for Active; 'I' for Inactive)
REMARK    1  A    between atoms: C_2  and  C_4 
REMARK    2  A    between atoms: C_7  and  O_8 
REMARK    3  A    between atoms: O_8  and  C_9 
REMARK    4  A    between atoms: C_9  and  C_10 
REMARK    5  A    between atoms: C_10  and  C_11 
REMARK    6  A    between atoms: C_11  and  C_12 
REMARK    7  A    between atoms: C_12  and  C_13 
REMARK    8  A    between atoms: C_13  and  O_14 
REMARK    9  A    between atoms: O_14  and  C_15 
REMARK   10  A    between atoms: C_18  and  C_19 
ROOT
ATOM      1  C   UNL d   1       9.151   4.399 -12.630  0.00  0.00     0.005 C 
ENDROOT
BRANCH   1   2
ATOM      2  C   UNL d   1       8.191   5.301 -11.842  0.00  0.00     0.033 C 
BRANCH   2   3
ATOM      3  C   UNL d   1       8.611   5.494 -10.382  0.00  0.00     0.149 C 
BRANCH   3   4
ATOM      4  O   UNL d   1       9.676   6.431 -10.341  0.00  0.00    -0.331 OA
BRANCH   4   5
ATOM      5  C   UNL d   1       9.987   7.001  -9.126  0.00  0.00     0.094 A 
ATOM      6  C   UNL d   1       9.476   6.554  -7.882  0.00  0.00     0.024 A 
ATOM      7  C   UNL d   1       9.857   7.188  -6.683  0.00  0.00     0.005 A 
ATOM      8  C   UNL d   1      10.741   8.286  -6.702  0.00  0.00     0.033 A 
ATOM      9  C   UNL d   1      11.242   8.736  -7.942  0.00  0.00     0.005 A 
ATOM     10  C   UNL d   1      10.874   8.094  -9.140  0.00  0.00     0.024 A 
BRANCH   8  11
ATOM     11  C   UNL d   1      11.131   8.966  -5.431  0.00  0.00     0.172 C 
ATOM     12  N   UNL d   1      11.118  10.249  -5.369  0.00  0.00    -0.133 N 
ATOM     13  N   UNL d   1      11.503   8.147  -4.383  0.00  0.00    -0.078 NA
ENDBRANCH   8  11
ENDBRANCH   4   5
ENDBRANCH   3   4
ENDBRANCH   2   3
ENDBRANCH   1   2
BRANCH   1  14
ATOM     14  C   UNL d   1       8.545   4.086 -14.021  0.00  0.00     0.033 C 
BRANCH  14  15
ATOM     15  C   UNL d   1       9.452   3.057 -14.763  0.00  0.00     0.149 C 
BRANCH  15  16
ATOM     16  O   UNL d   1       8.797   2.502 -15.902  0.00  0.00    -0.331 OA
BRANCH  16  17
ATOM     17  C   UNL d   1       7.776   1.592 -15.732  0.00  0.00     0.094 A 
ATOM     18  C   UNL d   1       7.103   1.399 -14.500  0.00  0.00     0.024 A 
ATOM     19  C   UNL d   1       6.002   0.517 -14.417  0.00  0.00     0.005 A 
ATOM     20  C   UNL d   1       5.604  -0.240 -15.540  0.00  0.00     0.033 A 
ATOM     21  C   UNL d   1       6.313  -0.075 -16.758  0.00  0.00     0.005 A 
ATOM     22  C   UNL d   1       7.372   0.852 -16.860  0.00  0.00     0.024 A 
BRANCH  20  23
ATOM     23  C   UNL d   1       4.489  -1.202 -15.413  0.00  0.00     0.172 C 
ATOM     24  N   UNL d   1       3.469  -0.903 -14.688  0.00  0.00    -0.133 N 
ATOM     25  N   UNL d   1       4.648  -2.413 -16.069  0.00  0.00    -0.078 NA
ENDBRANCH  20  23
ENDBRANCH  16  17
ENDBRANCH  15  16
ENDBRANCH  14  15
ENDBRANCH   1  14
TORSDOF 10
