REMARK  3 active torsions:
REMARK  status: ('A' for Active; 'I' for Inactive)
REMARK    1  A    between atoms: C_7  and  S_8 
REMARK    2  A    between atoms: S_8  and  N_11 
REMARK    3  A    between atoms: C_20  and  N_21 
ROOT
ATOM      1  N   UNL d   1       9.586   1.141 -19.064  0.00  0.00    -0.231 N 
ATOM      2  C   UNL d   1       9.335   2.210 -19.935  0.00  0.00     0.092 A 
ATOM      3  C   UNL d   1       9.012   1.921 -21.278  0.00  0.00     0.021 A 
ATOM      4  C   UNL d   1       8.726   2.954 -22.187  0.00  0.00     0.013 A 
ATOM      5  C   UNL d   1       8.770   4.290 -21.758  0.00  0.00     0.059 A 
ATOM      6 CL   UNL d   1       8.417   5.565 -22.863  0.00  0.00    -0.082 Cl
ATOM      7  C   UNL d   1       9.087   4.588 -20.422  0.00  0.00     0.032 A 
ATOM      8  C   UNL d   1       9.348   3.562 -19.488  0.00  0.00     0.101 A 
ATOM      9  N   UNL d   1       9.705   3.986 -18.198  0.00  0.00    -0.227 NA
ATOM     10  C   UNL d   1       9.414   3.356 -17.105  0.00  0.00     0.141 C 
ATOM     11  C   UNL d   1       8.573   2.109 -17.045  0.00  0.00     0.051 A 
ATOM     12  C   UNL d   1       7.635   1.985 -15.992  0.00  0.00     0.004 A 
ATOM     13  C   UNL d   1       6.877   0.815 -15.835  0.00  0.00     0.000 A 
ATOM     14  C   UNL d   1       7.039  -0.248 -16.739  0.00  0.00     0.002 A 
ATOM     15  C   UNL d   1       7.959  -0.132 -17.801  0.00  0.00     0.018 A 
ATOM     16  C   UNL d   1       8.719   1.042 -17.968  0.00  0.00     0.078 A 
ENDROOT
BRANCH   1  17
ATOM     17  S   UNL d   1      10.823  -0.066 -19.375  0.00  0.00     0.271 S 
ATOM     18  O   UNL d   1      10.355  -0.808 -20.555  0.00  0.00    -0.200 OA
ATOM     19  O   UNL d   1      11.066  -0.767 -18.105  0.00  0.00    -0.200 OA
BRANCH  17  20
ATOM     20  C   UNL d   1      12.293   0.886 -19.811  0.00  0.00     0.100 A 
ATOM     21  C   UNL d   1      12.933   1.758 -18.892  0.00  0.00    -0.010 A 
ATOM     22  C   UNL d   1      12.446   1.929 -17.474  0.00  0.00     0.032 C 
ATOM     23  C   UNL d   1      14.045   2.515 -19.306  0.00  0.00    -0.004 A 
ATOM     24  C   UNL d   1      14.558   2.373 -20.608  0.00  0.00    -0.000 A 
ATOM     25  C   UNL d   1      13.949   1.473 -21.508  0.00  0.00     0.001 A 
ATOM     26  C   UNL d   1      12.811   0.739 -21.115  0.00  0.00     0.013 A 
ENDBRANCH  17  20
ENDBRANCH   1  17
BRANCH  10  27
ATOM     27  N   UNL d   1       9.875   3.789 -15.869  0.00  0.00    -0.330 N 
ATOM     28  C   UNL d   1      10.617   2.958 -14.927  0.00  0.00     0.138 C 
ATOM     29  C   UNL d   1       9.975   3.000 -13.534  0.00  0.00     0.274 C 
ATOM     30  N   UNL d   1       9.893   4.388 -13.068  0.00  0.00     0.143 N 
ATOM     31  C   UNL d   1       9.066   5.160 -14.000  0.00  0.00     0.274 C 
ATOM     32  C   UNL d   1       9.274   4.407 -11.754  0.00  0.00     0.286 C 
ATOM     33  C   UNL d   1       9.711   5.154 -15.400  0.00  0.00     0.138 C 
ENDBRANCH  10  27
TORSDOF 3
