REMARK  8 active torsions:
REMARK  status: ('A' for Active; 'I' for Inactive)
REMARK    1  A    between atoms: O_2  and  C_3 
REMARK    2  A    between atoms: C_8  and  C_9 
REMARK    3  A    between atoms: C_11  and  C_12 
REMARK    4  A    between atoms: C_12  and  N_13 
REMARK    5  A    between atoms: N_13  and  C_14 
REMARK    6  A    between atoms: C_14  and  C_15 
REMARK    7  A    between atoms: C_15  and  C_16 
REMARK    8  A    between atoms: C_19  and  N_20 
REMARK       I    between atoms: N_20  and  C_21 
REMARK       I    between atoms: C_21  and  N_23 
ROOT
ATOM      1  C   UNL d   1       7.995   4.897 -12.162  0.00  0.00     0.038 C 
ENDROOT
BRANCH   1   2
ATOM      2  C   UNL d   1       9.406   5.319 -11.725  0.00  0.00     0.290 C 
BRANCH   2   3
ATOM      3  N   UNL d   1       9.382   6.343 -10.694  0.00  0.00     0.339 N 
BRANCH   3   4
ATOM      4  C   UNL d   1       8.658   5.875  -9.516  0.00  0.00     0.290 C 
BRANCH   4   5
ATOM      5  C   UNL d   1       8.861   6.782  -8.346  0.00  0.00     0.041 A 
ATOM      6  C   UNL d   1       9.747   6.350  -7.212  0.00  0.00     0.026 A 
ATOM      7  C   UNL d   1       8.254   6.438  -7.012  0.00  0.00     0.007 A 
BRANCH   6   8
ATOM      8  C   UNL d   1      10.664   7.311  -6.575  0.00  0.00    -0.000 A 
ATOM      9  C   UNL d   1      11.377   8.244  -7.338  0.00  0.00     0.090 A 
ATOM     10  C   UNL d   1      12.169   9.207  -6.666  0.00  0.00     0.024 A 
ATOM     11  C   UNL d   1      12.241   9.233  -5.263  0.00  0.00     0.002 A 
ATOM     12  C   UNL d   1      11.537   8.276  -4.508  0.00  0.00    -0.000 A 
ATOM     13  C   UNL d   1      10.766   7.308  -5.177  0.00  0.00    -0.002 A 
BRANCH   9  14
ATOM     14  O   UNL d   1      11.260   8.138  -8.705  0.00  0.00    -0.328 OA
ATOM     15  C   UNL d   1      11.848   9.122  -9.502  0.00  0.00     0.181 C 
ENDBRANCH   9  14
ENDBRANCH   6   8
ENDBRANCH   4   5
ENDBRANCH   3   4
ENDBRANCH   2   3
ENDBRANCH   1   2
BRANCH   1  16
ATOM     16  C   UNL d   1       8.010   3.676 -13.064  0.00  0.00     0.002 C 
ATOM     17  C   UNL d   1       8.490   4.013 -14.453  0.00  0.00     0.002 C 
ATOM     18  C   UNL d   1       8.396   2.781 -15.366  0.00  0.00     0.025 C 
ATOM     19  C   UNL d   1       6.980   2.164 -15.405  0.00  0.00     0.108 C 
ATOM     20  C   UNL d   1       6.481   1.819 -14.004  0.00  0.00     0.025 C 
ATOM     21  C   UNL d   1       6.579   3.062 -13.094  0.00  0.00     0.002 C 
BRANCH  19  22
ATOM     22  N   UNL d   1       6.898   0.999 -16.273  0.00  0.00    -0.221 NA
ATOM     23  C   UNL d   1       7.035   0.997 -17.606  0.00  0.00     0.342 C 
ATOM     24  O   UNL d   1       7.417   1.961 -18.261  0.00  0.00    -0.245 OA
ATOM     25  N   UNL d   1       6.755  -0.199 -18.167  0.00  0.00    -0.301 N 
ATOM     26  C   UNL d   1       7.009  -0.497 -19.573  0.00  0.00     0.106 C 
ATOM     27  C   UNL d   1       6.003  -1.287 -17.539  0.00  0.00     0.106 C 
ATOM     28  C   UNL d   1       6.228  -1.776 -19.882  0.00  0.00     0.026 C 
ATOM     29  C   UNL d   1       6.061  -2.449 -18.527  0.00  0.00     0.026 C 
ENDBRANCH  19  22
ENDBRANCH   1  16
TORSDOF 8
