REMARK  5 active torsions:
REMARK  status: ('A' for Active; 'I' for Inactive)
REMARK    1  A    between atoms: C_2  and  C_3 
REMARK    2  A    between atoms: C_3  and  C_4 
REMARK    3  A    between atoms: C_4  and  C_5 
REMARK    4  A    between atoms: C_5  and  C_7 
REMARK    5  A    between atoms: C_7  and  C_8 
ROOT
ATOM      1  C   UNL d   1      10.710   7.804  -6.732  0.00  0.00     0.150 C 
ATOM      2  C   UNL d   1       9.268   7.881  -7.236  0.00  0.00     0.268 C 
ATOM      3  O   UNL d   1       8.652   8.867  -7.009  0.00  0.00    -0.270 OA
ATOM      4  N   UNL d   1       8.659   6.936  -7.963  0.00  0.00    -0.155 NA
ATOM      5  C   UNL d   1       9.210   5.793  -8.384  0.00  0.00     0.373 C 
ATOM      6  O   UNL d   1       8.576   4.937  -9.000  0.00  0.00    -0.242 OA
ATOM      7  N   UNL d   1      10.493   5.635  -8.041  0.00  0.00    -0.155 NA
ATOM      8  C   UNL d   1      11.198   6.438  -7.225  0.00  0.00     0.268 C 
ATOM      9  O   UNL d   1      12.243   6.032  -6.779  0.00  0.00    -0.270 OA
ENDROOT
BRANCH   1  10
ATOM     10  C   UNL d   1      11.562   8.960  -7.332  0.00  0.00     0.044 C 
BRANCH  10  11
ATOM     11  C   UNL d   1      11.475   9.155  -8.831  0.00  0.00    -0.025 C 
ATOM     12  C   UNL d   1      12.261   8.523  -9.711  0.00  0.00    -0.005 C 
ENDBRANCH  10  11
ENDBRANCH   1  10
BRANCH   1  13
ATOM     13  C   UNL d   1      10.775   7.805  -5.165  0.00  0.00     0.017 C 
ATOM     14  C   UNL d   1      10.389   6.402  -4.569  0.00  0.00     0.001 C 
BRANCH  13  15
ATOM     15  C   UNL d   1      12.072   8.300  -4.476  0.00  0.00     0.001 C 
BRANCH  15  16
ATOM     16  C   UNL d   1      11.861   8.912  -3.084  0.00  0.00     0.000 C 
ATOM     17  C   UNL d   1      12.014   7.914  -1.936  0.00  0.00     0.000 C 
ENDBRANCH  15  16
ENDBRANCH  13  15
ENDBRANCH   1  13
TORSDOF 5
