REMARK  7 active torsions:
REMARK  status: ('A' for Active; 'I' for Inactive)
REMARK       I    between atoms: C_2  and  N_3 
REMARK    1  A    between atoms: C_2  and  C_22 
REMARK    2  A    between atoms: N_3  and  C_4 
REMARK    3  A    between atoms: C_4  and  C_5 
REMARK    4  A    between atoms: C_5  and  C_6 
REMARK    5  A    between atoms: C_6  and  C_7 
REMARK    6  A    between atoms: C_7  and  N_8 
REMARK    7  A    between atoms: C_25  and  C_26 
ROOT
ATOM      1  C   UNL d   1       6.352   3.039 -13.255  0.00  0.00     0.029 C 
ENDROOT
BRANCH   1   2
ATOM      2  C   UNL d   1       6.218   4.494 -12.795  0.00  0.00     0.129 C 
BRANCH   2   3
ATOM      3  N   UNL d   1       7.096   4.824 -11.677  0.00  0.00    -0.234 NA
ATOM      4  C   UNL d   1       8.346   5.285 -11.818  0.00  0.00     0.275 C 
ATOM      5  O   UNL d   1       8.932   5.303 -12.902  0.00  0.00    -0.266 OA
BRANCH   4   6
ATOM      6  C   UNL d   1       8.961   5.883 -10.580  0.00  0.00     0.058 A 
ATOM      7  C   UNL d   1       9.842   6.974 -10.705  0.00  0.00     0.005 A 
ATOM      8  C   UNL d   1      10.420   7.575  -9.573  0.00  0.00     0.000 A 
ATOM      9  C   UNL d   1      10.121   7.106  -8.273  0.00  0.00     0.000 A 
ATOM     10  C   UNL d   1       9.235   6.007  -8.153  0.00  0.00     0.000 A 
ATOM     11  C   UNL d   1       8.671   5.390  -9.290  0.00  0.00     0.005 A 
BRANCH   9  12
ATOM     12  C   UNL d   1      10.715   7.754  -7.079  0.00  0.00     0.000 A 
ATOM     13  C   UNL d   1      11.137   9.104  -7.110  0.00  0.00     0.000 A 
ATOM     14  C   UNL d   1      11.713   9.713  -5.979  0.00  0.00     0.000 A 
ATOM     15  C   UNL d   1      11.869   8.980  -4.787  0.00  0.00     0.000 A 
ATOM     16  C   UNL d   1      11.458   7.636  -4.741  0.00  0.00     0.000 A 
ATOM     17  C   UNL d   1      10.892   7.030  -5.877  0.00  0.00     0.000 A 
ENDBRANCH   9  12
ENDBRANCH   4   6
ENDBRANCH   2   3
ENDBRANCH   1   2
BRANCH   1  18
ATOM     18  C   UNL d   1       7.695   2.756 -13.936  0.00  0.00     0.037 C 
BRANCH  18  19
ATOM     19  C   UNL d   1       7.913   1.266 -14.284  0.00  0.00     0.251 C 
BRANCH  19  20
ATOM     20  N   UNL d   1       8.948   1.032 -15.287  0.00  0.00     0.143 N 
ATOM     21  C   UNL d   1       8.582   1.459 -16.642  0.00  0.00     0.280 C 
ATOM     22  C   UNL d   1       9.707   1.084 -17.624  0.00  0.00     0.173 C 
ATOM     23  C   UNL d   1       7.253   0.904 -17.194  0.00  0.00     0.185 C 
ATOM     24  O   UNL d   1      10.905   1.750 -17.233  0.00  0.00    -0.348 OA
ATOM     25  C   UNL d   1       9.307   1.405 -19.049  0.00  0.00     0.029 A 
ATOM     26  C   UNL d   1      11.339   1.369 -15.930  0.00  0.00     0.178 C 
ATOM     27  C   UNL d   1      10.225   1.651 -14.912  0.00  0.00     0.282 C 
ATOM     28  C   UNL d   1       7.940   1.576 -19.382  0.00  0.00     0.092 A 
ATOM     29  C   UNL d   1      10.295   1.509 -20.049  0.00  0.00     0.000 A 
ATOM     30  C   UNL d   1       7.583   1.877 -20.710  0.00  0.00     0.024 A 
ATOM     31  O   UNL d   1       6.932   1.494 -18.448  0.00  0.00    -0.329 OA
ATOM     32  C   UNL d   1       8.572   1.992 -21.704  0.00  0.00     0.002 A 
ATOM     33  C   UNL d   1       9.928   1.804 -21.375  0.00  0.00    -0.000 A 
ENDBRANCH  19  20
ENDBRANCH  18  19
ENDBRANCH   1  18
TORSDOF 7
