REMARK  4 active torsions:
REMARK  status: ('A' for Active; 'I' for Inactive)
REMARK    1  A    between atoms: C_4  and  N_5 
REMARK    2  A    between atoms: N_8  and  C_9 
REMARK    3  A    between atoms: C_9  and  C_10 
REMARK    4  A    between atoms: C_10  and  C_11 
ROOT
ATOM      1  N   UNL d   1       8.736   5.275 -12.169  0.00  0.00    -0.325 N 
ATOM      2  C   UNL d   1       9.079   6.608 -11.708  0.00  0.00     0.139 C 
ATOM      3  C   UNL d   1       9.742   6.580 -10.338  0.00  0.00     0.274 C 
ATOM      4  N   UNL d   1       8.877   5.982  -9.328  0.00  0.00     0.141 N 
ATOM      5  C   UNL d   1       8.541   4.629  -9.775  0.00  0.00     0.274 C 
ATOM      6  C   UNL d   1       7.861   4.683 -11.170  0.00  0.00     0.139 C 
ENDROOT
BRANCH   4   7
ATOM      7  C   UNL d   1       9.462   5.928  -7.990  0.00  0.00     0.253 C 
BRANCH   7   8
ATOM      8  C   UNL d   1      10.586   6.985  -7.692  0.00  0.00     0.064 C 
BRANCH   8   9
ATOM      9  C   UNL d   1      10.113   7.982  -6.604  0.00  0.00     0.131 A 
ATOM     10  C   UNL d   1      10.943   7.844  -5.368  0.00  0.00     0.005 A 
ATOM     11  C   UNL d   1      11.680   8.982  -5.150  0.00  0.00     0.055 A 
ATOM     12  C   UNL d   1      11.081   6.725  -4.537  0.00  0.00    -0.002 A 
ATOM     13  C   UNL d   1      11.397   9.947  -6.235  0.00  0.00     0.275 A 
ATOM     14  C   UNL d   1      12.563   9.094  -4.051  0.00  0.00     0.004 A 
ATOM     15  N   UNL d   1      10.491   9.342  -7.010  0.00  0.00    -0.232 NA
ATOM     16  O   UNL d   1      11.863  11.060  -6.392  0.00  0.00    -0.266 OA
ATOM     17  C   UNL d   1      12.655   7.992  -3.180  0.00  0.00     0.000 A 
ATOM     18  C   UNL d   1      11.934   6.801  -3.419  0.00  0.00    -0.000 A 
ENDBRANCH   8   9
ENDBRANCH   7   8
ENDBRANCH   4   7
BRANCH   1  19
ATOM     19  C   UNL d   1       9.184   4.703 -13.353  0.00  0.00     0.171 A 
ATOM     20  N   UNL d   1      10.216   5.165 -14.067  0.00  0.00    -0.227 NA
ATOM     21  C   UNL d   1      10.411   4.429 -15.237  0.00  0.00     0.064 A 
ATOM     22  C   UNL d   1      11.516   4.781 -16.148  0.00  0.00     0.052 C 
ATOM     23  C   UNL d   1       9.484   3.415 -15.399  0.00  0.00     0.024 A 
ATOM     24  S   UNL d   1       8.363   3.344 -14.086  0.00  0.00    -0.054 SA
ATOM     25  C   UNL d   1       9.372   2.448 -16.502  0.00  0.00     0.040 C 
ENDBRANCH   1  19
TORSDOF 4
