REMARK  5 active torsions:
REMARK  status: ('A' for Active; 'I' for Inactive)
REMARK    1  A    between atoms: C_2  and  O_3 
REMARK    2  A    between atoms: O_3  and  C_4 
REMARK    3  A    between atoms: C_10  and  C_11 
REMARK    4  A    between atoms: N_14  and  C_15 
REMARK    5  A    between atoms: C_15  and  C_16 
ROOT
ATOM      1  C   UNL d   1       8.562   2.176 -17.149  0.00  0.00    -0.021 C 
ATOM      2  C   UNL d   1       7.894   1.762 -16.069  0.00  0.00     0.005 C 
ATOM      3  C   UNL d   1       8.178   2.245 -14.695  0.00  0.00     0.277 C 
ATOM      4  N   UNL d   1       9.451   2.953 -14.535  0.00  0.00     0.146 N 
ATOM      5  C   UNL d   1       9.680   3.910 -15.619  0.00  0.00     0.256 C 
ATOM      6  C   UNL d   1       9.721   3.176 -16.975  0.00  0.00     0.061 C 
ENDROOT
BRANCH   1   7
ATOM      7  C   UNL d   1       8.178   1.733 -18.495  0.00  0.00     0.017 A 
ATOM      8  C   UNL d   1       8.824   2.147 -19.637  0.00  0.00     0.099 A 
ATOM      9  N   UNL d   1       8.254   1.479 -20.713  0.00  0.00    -0.244 NA
ATOM     10  C   UNL d   1       7.229   0.645 -20.297  0.00  0.00     0.082 A 
ATOM     11  C   UNL d   1       6.407  -0.217 -21.036  0.00  0.00     0.021 A 
ATOM     12  C   UNL d   1       7.125   0.797 -18.864  0.00  0.00     0.021 A 
ATOM     13  C   UNL d   1       5.428  -0.970 -20.388  0.00  0.00     0.026 A 
ATOM     14  C   UNL d   1       5.259  -0.844 -18.985  0.00  0.00     0.094 A 
ATOM     15  C   UNL d   1       6.103   0.016 -18.246  0.00  0.00     0.026 A 
BRANCH  14  16
ATOM     16  O   UNL d   1       4.271  -1.507 -18.285  0.00  0.00    -0.331 OA
BRANCH  16  17
ATOM     17  C   UNL d   1       3.517  -2.525 -18.934  0.00  0.00     0.149 C 
ATOM     18  C   UNL d   1       4.316  -3.833 -18.975  0.00  0.00     0.035 C 
ENDBRANCH  16  17
ENDBRANCH  14  16
ENDBRANCH   1   7
BRANCH   4  19
ATOM     19  C   UNL d   1       9.570   3.565 -13.208  0.00  0.00     0.277 C 
BRANCH  19  20
ATOM     20  C   UNL d   1       8.449   4.541 -12.841  0.00  0.00     0.011 A 
ATOM     21  C   UNL d   1       7.121   4.090 -12.609  0.00  0.00    -0.002 A 
ATOM     22  C   UNL d   1       6.087   5.013 -12.375  0.00  0.00    -0.000 A 
ATOM     23  C   UNL d   1       6.375   6.393 -12.302  0.00  0.00    -0.000 A 
ATOM     24  C   UNL d   1       7.696   6.833 -12.469  0.00  0.00    -0.000 A 
ATOM     25  C   UNL d   1       8.726   5.922 -12.736  0.00  0.00    -0.002 A 
ENDBRANCH  19  20
ENDBRANCH   4  19
TORSDOF 5
