REMARK  7 active torsions:
REMARK  status: ('A' for Active; 'I' for Inactive)
REMARK    1  A    between atoms: N_11  and  C_12 
REMARK    2  A    between atoms: C_12  and  C_13 
REMARK    3  A    between atoms: C_13  and  C_14 
REMARK    4  A    between atoms: C_14  and  C_15 
REMARK    5  A    between atoms: C_15  and  N_16 
REMARK       I    between atoms: N_16  and  C_17 
REMARK    6  A    between atoms: C_17  and  C_19 
REMARK    7  A    between atoms: C_22  and  C_23 
ROOT
ATOM      1  N   UNL d   1      17.493   5.924 -16.805  0.00  0.00    -0.191 NA
ATOM      2  C   UNL d   1      16.398   5.991 -17.148  0.00  0.00     0.101 C 
ATOM      3  C   UNL d   1      15.013   6.096 -17.583  0.00  0.00     0.068 A 
ATOM      4  C   UNL d   1      14.673   6.865 -18.703  0.00  0.00     0.012 A 
ATOM      5  C   UNL d   1      13.328   6.988 -19.101  0.00  0.00     0.025 A 
ATOM      6  C   UNL d   1      12.311   6.351 -18.373  0.00  0.00     0.090 A 
ATOM      7  C   UNL d   1      12.664   5.569 -17.238  0.00  0.00     0.003 A 
ATOM      8  C   UNL d   1      14.005   5.444 -16.836  0.00  0.00     0.008 A 
ATOM      9  C   UNL d   1      11.543   4.890 -16.489  0.00  0.00     0.062 C 
ATOM     10  C   UNL d   1      11.769   3.542 -15.832  0.00  0.00     0.255 C 
ATOM     11  N   UNL d   1      10.375   3.074 -15.648  0.00  0.00     0.137 N 
ATOM     12  C   UNL d   1       9.443   3.803 -16.550  0.00  0.00     0.253 C 
ATOM     13  C   UNL d   1      10.409   4.564 -17.447  0.00  0.00     0.070 C 
ATOM     14  C   UNL d   1       9.954   5.912 -18.035  0.00  0.00     0.151 C 
ATOM     15  O   UNL d   1      11.008   6.481 -18.824  0.00  0.00    -0.331 OA
ENDROOT
BRANCH  11  16
ATOM     16  C   UNL d   1      10.001   2.869 -14.251  0.00  0.00     0.250 C 
BRANCH  16  17
ATOM     17  C   UNL d   1       9.050   3.962 -13.724  0.00  0.00     0.037 C 
BRANCH  17  18
ATOM     18  C   UNL d   1       9.212   4.331 -12.257  0.00  0.00     0.029 C 
BRANCH  18  19
ATOM     19  C   UNL d   1       8.898   5.832 -12.056  0.00  0.00     0.129 C 
BRANCH  19  20
ATOM     20  N   UNL d   1       9.323   6.237 -10.742  0.00  0.00    -0.234 NA
ATOM     21  C   UNL d   1       9.796   7.460 -10.422  0.00  0.00     0.275 C 
ATOM     22  O   UNL d   1       9.861   8.389 -11.218  0.00  0.00    -0.266 OA
BRANCH  21  23
ATOM     23  C   UNL d   1      10.237   7.609  -9.001  0.00  0.00     0.058 A 
ATOM     24  C   UNL d   1      11.216   8.560  -8.667  0.00  0.00     0.005 A 
ATOM     25  C   UNL d   1      11.612   8.739  -7.325  0.00  0.00     0.000 A 
ATOM     26  C   UNL d   1      11.040   7.957  -6.294  0.00  0.00     0.000 A 
ATOM     27  C   UNL d   1      10.066   7.000  -6.636  0.00  0.00     0.000 A 
ATOM     28  C   UNL d   1       9.659   6.824  -7.969  0.00  0.00     0.005 A 
BRANCH  26  29
ATOM     29  C   UNL d   1      11.454   8.133  -4.890  0.00  0.00     0.000 A 
ATOM     30  C   UNL d   1      11.478   9.417  -4.308  0.00  0.00     0.000 A 
ATOM     31  C   UNL d   1      11.905   9.585  -2.972  0.00  0.00     0.000 A 
ATOM     32  C   UNL d   1      12.293   8.476  -2.208  0.00  0.00     0.000 A 
ATOM     33  C   UNL d   1      12.263   7.187  -2.772  0.00  0.00     0.000 A 
ATOM     34  C   UNL d   1      11.855   7.023  -4.109  0.00  0.00     0.000 A 
ENDBRANCH  26  29
ENDBRANCH  21  23
ENDBRANCH  19  20
ENDBRANCH  18  19
ENDBRANCH  17  18
ENDBRANCH  16  17
ENDBRANCH  11  16
TORSDOF 7
