REMARK  9 active torsions:
REMARK  status: ('A' for Active; 'I' for Inactive)
REMARK    1  A    between atoms: C_9  and  C_10 
REMARK    2  A    between atoms: C_10  and  N_11 
REMARK    3  A    between atoms: N_11  and  C_12 
REMARK    4  A    between atoms: C_12  and  C_13 
REMARK    5  A    between atoms: C_16  and  O_17 
REMARK    6  A    between atoms: O_17  and  C_18 
REMARK    7  A    between atoms: C_18  and  C_19 
REMARK    8  A    between atoms: C_19  and  C_20 
REMARK    9  A    between atoms: C_20  and  C_21 
ROOT
ATOM      1  N   UNL d   1       9.084   6.283  -9.973  0.00  0.00     0.346 N 
ENDROOT
BRANCH   1   2
ATOM      2  C   UNL d   1       9.064   6.038  -8.546  0.00  0.00     0.320 C 
BRANCH   2   3
ATOM      3  C   UNL d   1      10.095   6.951  -7.862  0.00  0.00     0.158 C 
ATOM      4  O   UNL d   1      10.252   6.491  -6.523  0.00  0.00    -0.331 OA
ATOM      5  C   UNL d   1      10.981   7.290  -5.666  0.00  0.00     0.092 A 
ATOM      6  C   UNL d   1      11.239   8.645  -5.939  0.00  0.00     0.000 A 
ATOM      7  C   UNL d   1      11.446   6.736  -4.463  0.00  0.00     0.051 A 
ATOM      8  C   UNL d   1      11.976   9.421  -5.027  0.00  0.00    -0.000 A 
ATOM      9  C   UNL d   1      10.704   9.289  -7.193  0.00  0.00     0.031 C 
ATOM     10  C   UNL d   1      12.447   8.866  -3.827  0.00  0.00     0.027 A 
ATOM     11  C   UNL d   1      12.187   7.516  -3.545  0.00  0.00     0.133 A 
ATOM     12  O   UNL d   1      12.656   6.947  -2.391  0.00  0.00    -0.190 OA
ATOM     13  C   UNL d   1       9.645   8.419  -7.874  0.00  0.00     0.037 C 
ENDBRANCH   2   3
ENDBRANCH   1   2
BRANCH   1  14
ATOM     14  C   UNL d   1       8.115   5.434 -10.644  0.00  0.00     0.317 C 
BRANCH  14  15
ATOM     15  C   UNL d   1       8.641   5.026 -11.995  0.00  0.00     0.014 A 
ATOM     16  C   UNL d   1       9.613   4.013 -12.065  0.00  0.00    -0.000 A 
ATOM     17  C   UNL d   1      10.132   3.602 -13.311  0.00  0.00     0.024 A 
ATOM     18  C   UNL d   1       9.676   4.168 -14.501  0.00  0.00     0.094 A 
ATOM     19  C   UNL d   1       8.663   5.184 -14.419  0.00  0.00     0.024 A 
ATOM     20  C   UNL d   1       8.167   5.614 -13.175  0.00  0.00    -0.000 A 
BRANCH  18  21
ATOM     21  O   UNL d   1      10.122   3.810 -15.748  0.00  0.00    -0.331 OA
BRANCH  21  22
ATOM     22  C   UNL d   1      10.639   2.485 -15.950  0.00  0.00     0.149 C 
BRANCH  22  23
ATOM     23  C   UNL d   1       9.508   1.443 -16.120  0.00  0.00     0.036 C 
BRANCH  23  24
ATOM     24  C   UNL d   1       8.589   1.269 -14.895  0.00  0.00     0.041 C 
BRANCH  24  25
ATOM     25  C   UNL d   1       7.310   0.486 -15.170  0.00  0.00     0.193 C 
ATOM     26  F   UNL d   1       6.588   0.451 -14.052  0.00  0.00    -0.234 F 
ENDBRANCH  24  25
ENDBRANCH  23  24
ENDBRANCH  22  23
ENDBRANCH  21  22
ENDBRANCH  18  21
ENDBRANCH  14  15
ENDBRANCH   1  14
TORSDOF 9
