REMARK  9 active torsions:
REMARK  status: ('A' for Active; 'I' for Inactive)
REMARK    1  A    between atoms: C_4  and  N_5 
REMARK    2  A    between atoms: N_5  and  C_6 
REMARK    3  A    between atoms: C_6  and  C_7 
REMARK    4  A    between atoms: C_7  and  O_8 
REMARK    5  A    between atoms: O_8  and  C_9 
REMARK    6  A    between atoms: C_18  and  N_19 
REMARK    7  A    between atoms: N_19  and  C_20 
REMARK    8  A    between atoms: C_20  and  C_21 
REMARK    9  A    between atoms: C_21  and  C_22 
ROOT
ATOM      1  N   UNL d   1       8.541   4.334  -8.609  0.00  0.00     0.063 N 
ATOM      2  C   UNL d   1       8.700   5.212  -9.625  0.00  0.00     0.799 A 
ATOM      3  N   UNL d   1       8.403   4.790 -10.830  0.00  0.00     0.136 NA
ATOM      4  C   UNL d   1       8.783   5.660 -11.771  0.00  0.00     0.776 A 
ATOM      5  N   UNL d   1       9.419   6.836 -11.601  0.00  0.00     0.134 NA
ATOM      6  C   UNL d   1       9.606   7.106 -10.312  0.00  0.00     0.776 A 
ATOM      7  N   UNL d   1       9.283   6.349  -9.261  0.00  0.00     0.136 NA
ENDROOT
BRANCH   4   8
ATOM      8  N   UNL d   1       8.624   5.302 -13.066  0.00  0.00    -0.082 NA
BRANCH   8   9
ATOM      9  C   UNL d   1       8.407   3.918 -13.454  0.00  0.00     0.178 C 
BRANCH   9  10
ATOM     10  C   UNL d   1       6.889   3.623 -13.619  0.00  0.00     0.176 C 
BRANCH  10  11
ATOM     11  O   UNL d   1       6.564   2.248 -13.732  0.00  0.00    -0.328 OA
BRANCH  11  12
ATOM     12  C   UNL d   1       6.767   1.588 -14.918  0.00  0.00     0.105 A 
ATOM     13  C   UNL d   1       5.958   0.443 -15.155  0.00  0.00     0.090 A 
ATOM     14  C   UNL d   1       6.065  -0.268 -16.374  0.00  0.00     0.070 A 
ATOM     15 CL   UNL d   1       4.787  -0.005 -13.967  0.00  0.00    -0.079 Cl
ATOM     16  C   UNL d   1       7.003   0.140 -17.339  0.00  0.00     0.012 A 
ATOM     17 CL   UNL d   1       5.008  -1.596 -16.715  0.00  0.00    -0.081 Cl
ATOM     18  C   UNL d   1       7.832   1.244 -17.105  0.00  0.00     0.003 A 
ATOM     19  C   UNL d   1       7.717   1.980 -15.912  0.00  0.00     0.025 A 
ENDBRANCH  11  12
ENDBRANCH  10  11
ENDBRANCH   9  10
ENDBRANCH   8   9
ENDBRANCH   4   8
BRANCH   6  20
ATOM     20  N   UNL d   1      10.326   8.248 -10.058  0.00  0.00    -0.085 NA
BRANCH  20  21
ATOM     21  C   UNL d   1      10.392   8.933  -8.776  0.00  0.00     0.150 C 
BRANCH  21  22
ATOM     22  C   UNL d   1      10.900   8.054  -7.597  0.00  0.00     0.055 C 
BRANCH  22  23
ATOM     23  C   UNL d   1      11.142   8.779  -6.341  0.00  0.00     0.000 A 
ATOM     24  C   UNL d   1      11.473   8.178  -5.091  0.00  0.00     0.015 A 
ATOM     25  C   UNL d   1      11.555   9.221  -4.128  0.00  0.00     0.081 A 
ATOM     26  C   UNL d   1      11.735   6.857  -4.650  0.00  0.00     0.001 A 
ATOM     27  N   UNL d   1      11.179  10.370  -4.788  0.00  0.00    -0.244 NA
ATOM     28  C   UNL d   1      11.967   8.985  -2.809  0.00  0.00     0.019 A 
ATOM     29  C   UNL d   1      10.994  10.113  -6.129  0.00  0.00     0.095 A 
ATOM     30  C   UNL d   1      12.259   7.672  -2.409  0.00  0.00     0.002 A 
ATOM     31  C   UNL d   1      12.136   6.612  -3.323  0.00  0.00     0.000 A 
ENDBRANCH  22  23
ENDBRANCH  21  22
ENDBRANCH  20  21
ENDBRANCH   6  20
TORSDOF 9
