REMARK  4 active torsions:
REMARK  status: ('A' for Active; 'I' for Inactive)
REMARK    1  A    between atoms: C_3  and  C_4 
REMARK    2  A    between atoms: N_7  and  C_8 
REMARK    3  A    between atoms: C_8  and  C_9 
REMARK    4  A    between atoms: C_19  and  C_20 
ROOT
ATOM      1  C   UNL d   1       9.559   7.603  -9.448  0.00  0.00     0.046 C 
ATOM      2  C   UNL d   1       8.980   6.169  -9.438  0.00  0.00     0.041 C 
ATOM      3  C   UNL d   1       8.287   5.775 -10.749  0.00  0.00     0.251 C 
ATOM      4  N   UNL d   1       9.146   5.968 -11.925  0.00  0.00     0.141 N 
ATOM      5  C   UNL d   1       9.447   7.395 -12.012  0.00  0.00     0.251 C 
ATOM      6  C   UNL d   1      10.276   7.840 -10.791  0.00  0.00     0.041 C 
ENDROOT
BRANCH   1   7
ATOM      7  C   UNL d   1      10.424   7.900  -8.249  0.00  0.00     0.078 A 
ATOM      8  C   UNL d   1      10.172   7.570  -6.880  0.00  0.00     0.013 A 
ATOM      9  C   UNL d   1       9.034   6.811  -6.269  0.00  0.00     0.034 C 
ATOM     10  C   UNL d   1      11.223   8.160  -6.231  0.00  0.00     0.100 A 
ATOM     11  N   UNL d   1      11.996   8.816  -7.165  0.00  0.00    -0.149 NA
ATOM     12  N   UNL d   1      11.487   8.687  -8.395  0.00  0.00    -0.153 NA
BRANCH  10  13
ATOM     13  C   UNL d   1      11.588   8.170  -4.835  0.00  0.00     0.019 A 
ATOM     14  C   UNL d   1      11.715   9.396  -4.172  0.00  0.00     0.002 A 
ATOM     15  C   UNL d   1      12.076   9.418  -2.816  0.00  0.00     0.000 A 
ATOM     16  C   UNL d   1      12.312   8.221  -2.119  0.00  0.00     0.000 A 
ATOM     17  C   UNL d   1      12.182   6.986  -2.779  0.00  0.00     0.000 A 
ATOM     18  C   UNL d   1      11.819   6.964  -4.141  0.00  0.00     0.002 A 
ENDBRANCH  10  13
ENDBRANCH   1   7
BRANCH   4  19
ATOM     19  C   UNL d   1       8.412   5.515 -13.100  0.00  0.00     0.277 C 
BRANCH  19  20
ATOM     20  C   UNL d   1       8.927   4.193 -13.641  0.00  0.00     0.011 A 
ATOM     21  C   UNL d   1       8.014   3.197 -14.040  0.00  0.00    -0.002 A 
ATOM     22  C   UNL d   1       8.489   1.987 -14.588  0.00  0.00    -0.000 A 
ATOM     23  C   UNL d   1       9.874   1.773 -14.734  0.00  0.00    -0.000 A 
ATOM     24  C   UNL d   1      10.786   2.769 -14.334  0.00  0.00    -0.000 A 
ATOM     25  C   UNL d   1      10.314   3.971 -13.783  0.00  0.00    -0.002 A 
ENDBRANCH  19  20
ENDBRANCH   4  19
TORSDOF 4
