REMARK  7 active torsions:
REMARK  status: ('A' for Active; 'I' for Inactive)
REMARK    1  A    between atoms: C_7  and  S_8 
REMARK    2  A    between atoms: S_8  and  N_11 
REMARK    3  A    between atoms: N_11  and  C_12 
REMARK    4  A    between atoms: N_15  and  C_16 
REMARK    5  A    between atoms: C_16  and  C_17 
REMARK    6  A    between atoms: C_17  and  C_18 
REMARK    7  A    between atoms: C_18  and  C_19 
ROOT
ATOM      1  C   UNL d   1       8.951   3.991 -13.486  0.00  0.00     0.151 C 
ATOM      2  C   UNL d   1       7.448   3.958 -13.619  0.00  0.00     0.063 C 
ATOM      3  C   UNL d   1       7.007   4.459 -12.249  0.00  0.00     0.252 C 
ATOM      4  N   UNL d   1       8.148   5.230 -11.743  0.00  0.00     0.139 N 
ATOM      5  C   UNL d   1       9.304   4.425 -12.081  0.00  0.00     0.275 C 
ENDROOT
BRANCH   1   6
ATOM      6  N   UNL d   1       9.645   2.757 -13.864  0.00  0.00    -0.184 NA
BRANCH   6   7
ATOM      7  S   UNL d   1      10.002   2.339 -15.489  0.00  0.00     0.287 S 
ATOM      8  O   UNL d   1       8.785   2.578 -16.290  0.00  0.00    -0.198 OA
ATOM      9  O   UNL d   1      10.664   1.034 -15.484  0.00  0.00    -0.198 OA
BRANCH   7  10
ATOM     10  C   UNL d   1      11.229   3.524 -16.036  0.00  0.00     0.134 A 
ATOM     11  S   UNL d   1      11.002   5.194 -15.666  0.00  0.00    -0.074 SA
ATOM     12  C   UNL d   1      12.534   5.619 -16.381  0.00  0.00     0.030 A 
ATOM     13  C   UNL d   1      13.101   6.898 -16.425  0.00  0.00     0.006 A 
ATOM     14  C   UNL d   1      13.148   4.470 -16.952  0.00  0.00     0.007 A 
ATOM     15  C   UNL d   1      14.318   7.095 -17.097  0.00  0.00    -0.004 A 
ATOM     16  C   UNL d   1      14.951   5.976 -17.693  0.00  0.00    -0.022 A 
ATOM     17  C   UNL d   1      16.251   6.152 -18.419  0.00  0.00     0.031 C 
ATOM     18  C   UNL d   1      14.377   4.685 -17.618  0.00  0.00    -0.004 A 
ATOM     19  C   UNL d   1      12.367   3.254 -16.732  0.00  0.00     0.020 A 
ENDBRANCH   7  10
ENDBRANCH   6   7
ENDBRANCH   1   6
BRANCH   4  20
ATOM     20  C   UNL d   1       8.062   5.441 -10.305  0.00  0.00     0.251 C 
BRANCH  20  21
ATOM     21  C   UNL d   1       9.259   6.256  -9.777  0.00  0.00     0.042 C 
BRANCH  21  22
ATOM     22  C   UNL d   1       9.207   6.509  -8.258  0.00  0.00     0.050 C 
BRANCH  22  23
ATOM     23  C   UNL d   1      10.107   7.635  -7.804  0.00  0.00     0.088 A 
ATOM     24  C   UNL d   1      10.786   7.836  -6.580  0.00  0.00     0.041 A 
ATOM     25  C   UNL d   1      11.436   9.067  -6.616  0.00  0.00     0.126 A 
ATOM     26  C   UNL d   1      10.872   7.054  -5.412  0.00  0.00     0.003 A 
ATOM     27  O   UNL d   1      11.149   9.599  -7.861  0.00  0.00    -0.211 OA
ATOM     28  C   UNL d   1      12.188   9.577  -5.558  0.00  0.00     0.027 A 
ATOM     29  N   UNL d   1      10.282   8.702  -8.569  0.00  0.00    -0.131 NA
ATOM     30  C   UNL d   1      12.276   8.797  -4.384  0.00  0.00     0.002 A 
ATOM     31  C   UNL d   1      11.625   7.538  -4.317  0.00  0.00     0.000 A 
ENDBRANCH  22  23
ENDBRANCH  21  22
ENDBRANCH  20  21
ENDBRANCH   4  20
TORSDOF 7
