REMARK  5 active torsions:
REMARK  status: ('A' for Active; 'I' for Inactive)
REMARK    1  A    between atoms: O_2  and  C_3 
REMARK    2  A    between atoms: C_9  and  C_10 
REMARK    3  A    between atoms: C_12  and  C_13 
REMARK    4  A    between atoms: C_13  and  N_14 
REMARK    5  A    between atoms: N_17  and  C_18 
ROOT
ATOM      1  C   UNL d   1       8.890   4.786 -12.628  0.00  0.00     0.175 C 
ATOM      2  N   UNL d   1       9.754   5.559 -12.158  0.00  0.00    -0.246 NA
ATOM      3  C   UNL d   1       9.237   6.248 -11.005  0.00  0.00     0.169 C 
ATOM      4  C   UNL d   1       7.760   5.907 -11.057  0.00  0.00     0.177 C 
ATOM      5  O   UNL d   1       7.693   4.841 -11.973  0.00  0.00    -0.313 OA
ENDROOT
BRANCH   3   6
ATOM      6  C   UNL d   1       9.593   7.758 -11.123  0.00  0.00     0.277 C 
BRANCH   6   7
ATOM      7  N   UNL d   1      10.458   8.305 -10.068  0.00  0.00     0.143 N 
ATOM      8  C   UNL d   1      11.402   7.343  -9.486  0.00  0.00     0.274 C 
ATOM      9  C   UNL d   1      12.315   8.002  -8.424  0.00  0.00     0.137 C 
ATOM     10  N   UNL d   1      11.447   8.583  -7.429  0.00  0.00    -0.344 N 
ATOM     11  C   UNL d   1      10.490   9.521  -7.918  0.00  0.00     0.137 C 
ATOM     12  C   UNL d   1       9.617   8.879  -9.021  0.00  0.00     0.274 C 
BRANCH  10  13
ATOM     13  C   UNL d   1      11.495   8.286  -6.059  0.00  0.00     0.056 A 
ATOM     14  C   UNL d   1      11.754   9.311  -5.142  0.00  0.00     0.017 A 
ATOM     15  C   UNL d   1      11.951   9.035  -3.772  0.00  0.00     0.002 A 
ATOM     16  C   UNL d   1      11.863   7.700  -3.317  0.00  0.00     0.000 A 
ATOM     17  C   UNL d   1      11.606   6.676  -4.237  0.00  0.00     0.002 A 
ATOM     18  C   UNL d   1      11.422   6.949  -5.607  0.00  0.00     0.017 A 
ENDBRANCH  10  13
ENDBRANCH   6   7
ENDBRANCH   3   6
BRANCH   1  19
ATOM     19  C   UNL d   1       9.118   3.858 -13.763  0.00  0.00     0.063 A 
ATOM     20  C   UNL d   1      10.298   3.847 -14.555  0.00  0.00     0.098 A 
ATOM     21  C   UNL d   1      10.375   2.912 -15.616  0.00  0.00     0.025 A 
ATOM     22  C   UNL d   1       9.320   2.007 -15.862  0.00  0.00     0.009 A 
ATOM     23  C   UNL d   1       8.173   2.020 -15.053  0.00  0.00     0.035 A 
ATOM     24 BR   UNL d   1       6.758   0.776 -15.328  0.00  0.00    -0.049 Br
ATOM     25  C   UNL d   1       8.073   2.947 -14.020  0.00  0.00     0.012 A 
BRANCH  20  26
ATOM     26  O   UNL d   1      11.322   4.743 -14.281  0.00  0.00    -0.328 OA
ATOM     27  C   UNL d   1      12.356   4.911 -15.237  0.00  0.00     0.181 C 
ENDBRANCH  20  26
ENDBRANCH   1  19
TORSDOF 5
