REMARK  0 active torsions:
REMARK  status: ('A' for Active; 'I' for Inactive)
ROOT
ATOM      1  C   UNL d   1       9.372  -0.687 -16.930  0.00  0.00     0.286 C 
ATOM      2  N   UNL d   1      10.031   0.595 -17.154  0.00  0.00     0.142 N 
ATOM      3  C   UNL d   1      11.454   0.332 -17.250  0.00  0.00     0.255 C 
ATOM      4  C   UNL d   1      12.129   1.601 -17.748  0.00  0.00     0.062 C 
ATOM      5  C   UNL d   1      11.858   2.840 -16.909  0.00  0.00    -0.015 A 
ATOM      6  C   UNL d   1      10.707   2.787 -16.084  0.00  0.00     0.006 A 
ATOM      7  C   UNL d   1      10.307   3.868 -15.257  0.00  0.00     0.001 A 
ATOM      8  C   UNL d   1      11.114   5.035 -15.383  0.00  0.00     0.019 A 
ATOM      9  C   UNL d   1      12.269   5.135 -16.193  0.00  0.00     0.089 A 
ATOM     10  N   UNL d   1      13.101   6.244 -16.329  0.00  0.00    -0.219 NA
ATOM     11  C   UNL d   1      14.090   5.955 -17.179  0.00  0.00     0.215 A 
ATOM     12  N   UNL d   1      15.087   6.851 -17.496  0.00  0.00    -0.120 N 
ATOM     13  S   UNL d   1      14.085   4.349 -17.901  0.00  0.00    -0.046 SA
ATOM     14  C   UNL d   1      12.636   3.999 -16.961  0.00  0.00     0.046 A 
ATOM     15  C   UNL d   1       9.091   3.790 -14.401  0.00  0.00     0.023 A 
ATOM     16  C   UNL d   1       8.095   2.842 -14.747  0.00  0.00    -0.018 A 
ATOM     17  C   UNL d   1       6.876   2.771 -14.039  0.00  0.00    -0.002 A 
ATOM     18  C   UNL d   1       6.649   3.605 -12.932  0.00  0.00     0.029 A 
ATOM     19  C   UNL d   1       7.660   4.488 -12.518  0.00  0.00     0.156 A 
ATOM     20  O   UNL d   1       7.504   5.245 -11.390  0.00  0.00    -0.188 OA
ATOM     21  C   UNL d   1       8.863   4.587 -13.244  0.00  0.00     0.156 A 
ATOM     22  O   UNL d   1       9.791   5.460 -12.759  0.00  0.00    -0.188 OA
ATOM     23  C   UNL d   1       8.335   1.902 -15.909  0.00  0.00     0.064 C 
ATOM     24  C   UNL d   1       9.829   1.521 -16.032  0.00  0.00     0.246 C 
ENDROOT
TORSDOF 0
