REMARK  5 active torsions:
REMARK  status: ('A' for Active; 'I' for Inactive)
REMARK    1  A    between atoms: O_2  and  C_3 
REMARK    2  A    between atoms: C_8  and  N_9 
REMARK    3  A    between atoms: N_12  and  C_13 
REMARK    4  A    between atoms: C_13  and  C_14 
REMARK    5  A    between atoms: C_14  and  C_15 
ROOT
ATOM      1  N   UNL d   1       9.820   4.126 -13.520  0.00  0.00    -0.343 N 
ATOM      2  C   UNL d   1       9.492   5.462 -13.957  0.00  0.00     0.137 C 
ATOM      3  C   UNL d   1       8.104   5.846 -13.420  0.00  0.00     0.274 C 
ATOM      4  N   UNL d   1       7.950   5.634 -11.984  0.00  0.00     0.141 N 
ATOM      5  C   UNL d   1       8.098   4.207 -11.742  0.00  0.00     0.274 C 
ATOM      6  C   UNL d   1       9.524   3.787 -12.149  0.00  0.00     0.137 C 
ENDROOT
BRANCH   4   7
ATOM      7  C   UNL d   1       8.861   6.486 -11.218  0.00  0.00     0.251 C 
BRANCH   7   8
ATOM      8  C   UNL d   1       8.950   6.110  -9.729  0.00  0.00     0.038 C 
BRANCH   8   9
ATOM      9  C   UNL d   1       9.617   7.207  -8.883  0.00  0.00     0.037 C 
ATOM     10  C   UNL d   1       9.901   6.675  -7.471  0.00  0.00     0.174 C 
ATOM     11  C   UNL d   1      10.742   7.619  -6.628  0.00  0.00     0.005 A 
ATOM     12  O   UNL d   1       8.658   6.387  -6.857  0.00  0.00    -0.219 OA
ATOM     13  C   UNL d   1      11.468   8.689  -7.204  0.00  0.00    -0.024 A 
ATOM     14  C   UNL d   1      10.834   7.389  -5.229  0.00  0.00     0.012 A 
ATOM     15  C   UNL d   1      11.455   8.936  -8.706  0.00  0.00     0.026 C 
ATOM     16  C   UNL d   1      12.210   9.547  -6.385  0.00  0.00    -0.003 A 
ATOM     17  C   UNL d   1      10.900   7.772  -9.522  0.00  0.00     0.008 C 
ATOM     18  C   UNL d   1      12.286   9.323  -4.994  0.00  0.00     0.014 A 
ATOM     19  C   UNL d   1      11.616   8.229  -4.422  0.00  0.00     0.070 A 
ATOM     20  N   UNL d   1      11.756   7.984  -3.046  0.00  0.00    -0.101 NA
ENDBRANCH   8   9
ENDBRANCH   7   8
ENDBRANCH   4   7
BRANCH   1  21
ATOM     21  C   UNL d   1      10.202   3.142 -14.463  0.00  0.00     0.079 A 
ATOM     22  C   UNL d   1       9.387   2.029 -14.725  0.00  0.00     0.110 A 
ATOM     23  C   UNL d   1       9.838   1.077 -15.700  0.00  0.00     0.026 A 
ATOM     24  C   UNL d   1      11.056   1.271 -16.367  0.00  0.00     0.002 A 
ATOM     25  C   UNL d   1      11.852   2.395 -16.086  0.00  0.00     0.002 A 
ATOM     26  C   UNL d   1      11.411   3.335 -15.120  0.00  0.00     0.019 A 
BRANCH  22  27
ATOM     27  O   UNL d   1       8.178   1.907 -14.078  0.00  0.00    -0.327 OA
ATOM     28  C   UNL d   1       7.366   0.770 -14.329  0.00  0.00     0.181 C 
ENDBRANCH  22  27
ENDBRANCH   1  21
TORSDOF 5
