REMARK  1 active torsions:
REMARK  status: ('A' for Active; 'I' for Inactive)
REMARK    1  A    between atoms: C_2  and  C_4 
ROOT
ATOM      1  C   UNL d   1      11.070   8.816  -6.470  0.00  0.00     0.060 A 
ATOM      2  C   UNL d   1       9.863   8.090  -6.515  0.00  0.00     0.005 A 
ATOM      3  C   UNL d   1       9.464   7.456  -7.707  0.00  0.00     0.001 A 
ATOM      4  C   UNL d   1      10.258   7.552  -8.867  0.00  0.00     0.014 A 
ATOM      5  C   UNL d   1      11.469   8.267  -8.834  0.00  0.00     0.070 A 
ATOM      6  N   UNL d   1      12.261   8.386  -9.981  0.00  0.00    -0.101 NA
ATOM      7  C   UNL d   1      11.866   8.892  -7.636  0.00  0.00     0.019 A 
ENDROOT
BRANCH   1   8
ATOM      8  C   UNL d   1      11.477   9.543  -5.224  0.00  0.00     0.297 C 
ATOM      9  N   UNL d   1      12.778   9.588  -4.971  0.00  0.00    -0.102 N 
ATOM     10  O   UNL d   1      10.661  10.001  -4.439  0.00  0.00    -0.264 OA
ENDBRANCH   1   8
TORSDOF 1
