REMARK  1 active torsions:
REMARK  status: ('A' for Active; 'I' for Inactive)
REMARK    1  A    between atoms: C_11  and  C_12 
ROOT
ATOM      1  O   UNL d   1       6.606  -0.415 -13.524  0.00  0.00    -0.290 OA
ATOM      2  C   UNL d   1       6.619  -0.024 -14.690  0.00  0.00     0.184 A 
ATOM      3  C   UNL d   1       5.722  -0.429 -15.779  0.00  0.00     0.038 A 
ATOM      4  C   UNL d   1       4.688  -1.381 -15.753  0.00  0.00     0.003 A 
ATOM      5  C   UNL d   1       3.964  -1.611 -16.943  0.00  0.00     0.000 A 
ATOM      6  C   UNL d   1       4.270  -0.893 -18.124  0.00  0.00     0.000 A 
ATOM      7  C   UNL d   1       5.310   0.063 -18.132  0.00  0.00     0.003 A 
ATOM      8  C   UNL d   1       6.024   0.277 -16.939  0.00  0.00     0.038 A 
ATOM      9  C   UNL d   1       7.129   1.206 -16.686  0.00  0.00     0.184 A 
ATOM     10  O   UNL d   1       7.629   1.996 -17.486  0.00  0.00    -0.290 OA
ATOM     11  C   UNL d   1       7.594   1.036 -15.229  0.00  0.00     0.146 A 
ENDROOT
BRANCH  11  12
ATOM     12  C   UNL d   1       7.594   2.344 -14.440  0.00  0.00    -0.008 A 
ATOM     13  C   UNL d   1       6.402   2.883 -13.904  0.00  0.00    -0.003 A 
ATOM     14  C   UNL d   1       6.427   4.080 -13.167  0.00  0.00    -0.000 A 
ATOM     15  C   UNL d   1       7.645   4.755 -12.966  0.00  0.00    -0.000 A 
ATOM     16  C   UNL d   1       8.837   4.229 -13.502  0.00  0.00    -0.000 A 
ATOM     17  C   UNL d   1       8.812   3.027 -14.235  0.00  0.00    -0.003 A 
ENDBRANCH  11  12
TORSDOF 1
