REMARK  8 active torsions:
REMARK  status: ('A' for Active; 'I' for Inactive)
REMARK    1  A    between atoms: O_2  and  C_3 
REMARK    2  A    between atoms: C_9  and  C_10 
REMARK    3  A    between atoms: C_12  and  C_13 
REMARK    4  A    between atoms: C_13  and  N_14 
REMARK    5  A    between atoms: N_14  and  C_15 
REMARK    6  A    between atoms: C_15  and  C_16 
REMARK    7  A    between atoms: N_19  and  C_20 
REMARK    8  A    between atoms: C_20  and  C_21 
ROOT
ATOM      1  C   UNL d   1       8.993   6.101 -12.833  0.00  0.00     0.337 C 
ENDROOT
BRANCH   1   2
ATOM      2  C   UNL d   1       7.906   5.072 -12.959  0.00  0.00     0.116 A 
ATOM      3  N   UNL d   1       8.049   3.966 -13.793  0.00  0.00    -0.227 NA
ATOM      4  C   UNL d   1       6.950   3.227 -13.641  0.00  0.00     0.164 A 
ATOM      5  N   UNL d   1       6.122   3.825 -12.767  0.00  0.00    -0.224 NA
ATOM      6  C   UNL d   1       6.695   4.999 -12.311  0.00  0.00     0.117 A 
BRANCH   4   7
ATOM      7  C   UNL d   1       6.681   1.931 -14.296  0.00  0.00     0.059 A 
ATOM      8  C   UNL d   1       7.546   1.401 -15.299  0.00  0.00     0.097 A 
ATOM      9  C   UNL d   1       7.177   0.190 -15.937  0.00  0.00     0.025 A 
ATOM     10  C   UNL d   1       5.982  -0.477 -15.608  0.00  0.00     0.009 A 
ATOM     11  C   UNL d   1       5.140   0.040 -14.614  0.00  0.00     0.035 A 
ATOM     12 BR   UNL d   1       3.464  -0.787 -14.234  0.00  0.00    -0.049 Br
ATOM     13  C   UNL d   1       5.509   1.217 -13.946  0.00  0.00     0.012 A 
BRANCH   8  14
ATOM     14  O   UNL d   1       8.704   2.084 -15.613  0.00  0.00    -0.328 OA
ATOM     15  C   UNL d   1       9.627   1.513 -16.524  0.00  0.00     0.181 C 
ENDBRANCH   8  14
ENDBRANCH   4   7
ENDBRANCH   1   2
BRANCH   1  16
ATOM     16  N   UNL d   1       9.856   6.101 -11.657  0.00  0.00     0.346 N 
BRANCH  16  17
ATOM     17  C   UNL d   1       9.061   6.457 -10.497  0.00  0.00     0.293 C 
BRANCH  17  18
ATOM     18  C   UNL d   1       9.842   6.170  -9.220  0.00  0.00     0.071 C 
ATOM     19  C   UNL d   1      10.707   7.353  -8.795  0.00  0.00     0.253 C 
ATOM     20  N   UNL d   1      10.711   7.239  -7.350  0.00  0.00     0.141 N 
ATOM     21  C   UNL d   1       9.319   6.961  -7.011  0.00  0.00     0.251 C 
ATOM     22  C   UNL d   1       8.918   5.915  -8.034  0.00  0.00     0.039 C 
BRANCH  20  23
ATOM     23  C   UNL d   1      11.197   8.449  -6.708  0.00  0.00     0.277 C 
BRANCH  23  24
ATOM     24  C   UNL d   1      11.455   8.284  -5.218  0.00  0.00     0.011 A 
ATOM     25  C   UNL d   1      11.603   7.005  -4.626  0.00  0.00    -0.002 A 
ATOM     26  C   UNL d   1      11.864   6.877  -3.251  0.00  0.00    -0.000 A 
ATOM     27  C   UNL d   1      12.001   8.024  -2.453  0.00  0.00    -0.000 A 
ATOM     28  C   UNL d   1      11.863   9.300  -3.036  0.00  0.00    -0.000 A 
ATOM     29  C   UNL d   1      11.580   9.431  -4.409  0.00  0.00    -0.002 A 
ENDBRANCH  23  24
ENDBRANCH  20  23
ENDBRANCH  17  18
ENDBRANCH  16  17
ENDBRANCH   1  16
TORSDOF 8
