REMARK  8 active torsions:
REMARK  status: ('A' for Active; 'I' for Inactive)
REMARK    1  A    between atoms: C_2  and  C_3 
REMARK    2  A    between atoms: C_3  and  N_4 
REMARK    3  A    between atoms: N_4  and  C_5 
REMARK    4  A    between atoms: N_4  and  C_25 
REMARK    5  A    between atoms: C_5  and  C_6 
REMARK    6  A    between atoms: C_6  and  N_7 
REMARK    7  A    between atoms: N_10  and  C_11 
REMARK    8  A    between atoms: C_14  and  C_15 
ROOT
ATOM      1  N   UNL d   1       8.724   5.048 -12.918  0.00  0.00     0.143 N 
ATOM      2  C   UNL d   1       9.743   6.071 -12.715  0.00  0.00     0.274 C 
ATOM      3  C   UNL d   1       9.398   7.108 -11.643  0.00  0.00     0.137 C 
ATOM      4  N   UNL d   1       9.129   6.378 -10.416  0.00  0.00    -0.344 N 
ATOM      5  C   UNL d   1       8.110   5.353 -10.538  0.00  0.00     0.137 C 
ATOM      6  C   UNL d   1       8.533   4.393 -11.628  0.00  0.00     0.274 C 
ENDROOT
BRANCH   1   7
ATOM      7  C   UNL d   1       9.209   4.128 -13.931  0.00  0.00     0.286 C 
BRANCH   7   8
ATOM      8  C   UNL d   1       8.257   2.988 -14.303  0.00  0.00     0.285 C 
BRANCH   8   9
ATOM      9  N   UNL d   1       8.883   1.703 -14.599  0.00  0.00     0.137 N 
BRANCH   9  10
ATOM     10  C   UNL d   1       9.958   1.845 -15.595  0.00  0.00     0.250 C 
BRANCH  10  11
ATOM     11  C   UNL d   1      10.746   0.576 -15.949  0.00  0.00     0.035 C 
ATOM     12  C   UNL d   1      11.781   0.893 -17.026  0.00  0.00     0.002 C 
ENDBRANCH  10  11
ENDBRANCH   9  10
BRANCH   9  13
ATOM     13  C   UNL d   1       7.878   0.699 -14.985  0.00  0.00     0.225 C 
ATOM     14  C   UNL d   1       7.278   0.929 -16.406  0.00  0.00     0.067 C 
ATOM     15  C   UNL d   1       6.166   0.005 -16.703  0.00  0.00     0.025 A 
ATOM     16  C   UNL d   1       5.488  -0.723 -15.761  0.00  0.00     0.063 A 
ATOM     17  S   UNL d   1       5.528  -0.241 -18.297  0.00  0.00    -0.057 SA
ATOM     18  C   UNL d   1       5.804  -0.716 -14.304  0.00  0.00     0.048 C 
ATOM     19  N   UNL d   1       4.470  -1.514 -16.284  0.00  0.00    -0.230 NA
ATOM     20  C   UNL d   1       6.766   0.433 -13.924  0.00  0.00     0.040 C 
ATOM     21  C   UNL d   1       4.380  -1.367 -17.597  0.00  0.00     0.180 A 
ATOM     22  N   UNL d   1       3.462  -2.038 -18.383  0.00  0.00    -0.072 NA
ENDBRANCH   9  13
ENDBRANCH   8   9
ENDBRANCH   7   8
ENDBRANCH   1   7
BRANCH   4  23
ATOM     23  C   UNL d   1       9.641   6.751  -9.139  0.00  0.00     0.056 A 
ATOM     24  C   UNL d   1       8.939   6.446  -7.959  0.00  0.00     0.017 A 
ATOM     25  C   UNL d   1       9.467   6.800  -6.702  0.00  0.00     0.002 A 
ATOM     26  C   UNL d   1      10.703   7.458  -6.606  0.00  0.00     0.000 A 
ATOM     27  C   UNL d   1      11.401   7.775  -7.785  0.00  0.00     0.002 A 
ATOM     28  C   UNL d   1      10.881   7.416  -9.044  0.00  0.00     0.017 A 
BRANCH  26  29
ATOM     29  C   UNL d   1      11.251   7.800  -5.303  0.00  0.00     0.003 A 
ATOM     30  C   UNL d   1      11.330   9.139  -4.875  0.00  0.00     0.021 A 
ATOM     31  C   UNL d   1      11.859   9.408  -3.600  0.00  0.00     0.099 A 
ATOM     32  N   UNL d   1      12.320   8.456  -2.764  0.00  0.00    -0.242 NA
ATOM     33  C   UNL d   1      12.255   7.176  -3.182  0.00  0.00     0.099 A 
ATOM     34  C   UNL d   1      11.727   6.801  -4.429  0.00  0.00     0.021 A 
ENDBRANCH  26  29
ENDBRANCH   4  23
TORSDOF 8
