REMARK  8 active torsions:
REMARK  status: ('A' for Active; 'I' for Inactive)
REMARK    1  A    between atoms: C_3  and  N_4 
REMARK    2  A    between atoms: N_4  and  C_5 
REMARK    3  A    between atoms: N_4  and  C_21 
REMARK    4  A    between atoms: C_5  and  C_6 
REMARK    5  A    between atoms: C_6  and  C_7 
REMARK    6  A    between atoms: C_7  and  C_8 
REMARK    7  A    between atoms: C_8  and  N_9 
REMARK    8  A    between atoms: N_12  and  C_13 
ROOT
ATOM      1  C   UNL d   1      10.451   0.437 -14.932  0.00  0.00     0.078 C 
ATOM      2  C   UNL d   1      10.580   1.563 -14.454  0.00  0.00    -0.118 C 
ATOM      3  C   UNL d   1      10.673   2.942 -13.951  0.00  0.00     0.313 C 
ENDROOT
BRANCH   3   4
ATOM      4  N   UNL d   1       9.601   3.857 -14.388  0.00  0.00     0.147 N 
BRANCH   4   5
ATOM      5  C   UNL d   1       9.568   5.078 -13.555  0.00  0.00     0.252 C 
BRANCH   5   6
ATOM      6  C   UNL d   1       9.422   4.796 -12.043  0.00  0.00     0.037 C 
BRANCH   6   7
ATOM      7  C   UNL d   1       9.505   6.036 -11.145  0.00  0.00     0.037 C 
BRANCH   7   8
ATOM      8  C   UNL d   1       9.354   5.658  -9.659  0.00  0.00     0.251 C 
BRANCH   8   9
ATOM      9  N   UNL d   1       9.624   6.806  -8.790  0.00  0.00     0.141 N 
ATOM     10  C   UNL d   1      11.060   6.937  -8.528  0.00  0.00     0.274 C 
ATOM     11  C   UNL d   1      11.365   8.160  -7.645  0.00  0.00     0.137 C 
ATOM     12  N   UNL d   1      10.580   8.084  -6.419  0.00  0.00    -0.344 N 
ATOM     13  C   UNL d   1       9.164   7.832  -6.582  0.00  0.00     0.137 C 
ATOM     14  C   UNL d   1       8.935   6.619  -7.501  0.00  0.00     0.274 C 
BRANCH  12  15
ATOM     15  C   UNL d   1      11.207   8.146  -5.157  0.00  0.00     0.056 A 
ATOM     16  C   UNL d   1      11.453   9.394  -4.553  0.00  0.00     0.017 A 
ATOM     17  C   UNL d   1      12.062   9.457  -3.280  0.00  0.00     0.002 A 
ATOM     18  C   UNL d   1      12.437   8.279  -2.612  0.00  0.00     0.000 A 
ATOM     19  C   UNL d   1      12.193   7.031  -3.212  0.00  0.00     0.002 A 
ATOM     20  C   UNL d   1      11.570   6.965  -4.480  0.00  0.00     0.017 A 
ENDBRANCH  12  15
ENDBRANCH   8   9
ENDBRANCH   7   8
ENDBRANCH   6   7
ENDBRANCH   5   6
ENDBRANCH   4   5
BRANCH   4  21
ATOM     21  C   UNL d   1       9.614   4.192 -15.828  0.00  0.00     0.225 C 
ATOM     22  C   UNL d   1       9.159   3.006 -16.729  0.00  0.00     0.059 C 
ATOM     23  C   UNL d   1       9.350   3.231 -18.204  0.00  0.00    -0.022 A 
ATOM     24  C   UNL d   1      10.194   4.256 -18.696  0.00  0.00    -0.026 A 
ATOM     25  C   UNL d   1       8.768   2.307 -19.093  0.00  0.00     0.023 A 
ATOM     26  C   UNL d   1      10.901   5.227 -17.760  0.00  0.00     0.028 C 
ATOM     27  C   UNL d   1      10.394   4.379 -20.089  0.00  0.00    -0.003 A 
ATOM     28  C   UNL d   1      10.973   4.749 -16.305  0.00  0.00     0.038 C 
ATOM     29  C   UNL d   1       9.762   3.482 -20.975  0.00  0.00     0.027 A 
ATOM     30  C   UNL d   1       8.963   2.436 -20.478  0.00  0.00     0.131 A 
ATOM     31  O   UNL d   1       8.351   1.563 -21.330  0.00  0.00    -0.190 OA
ENDBRANCH   4  21
ENDBRANCH   3   4
TORSDOF 8
