REMARK  11 active torsions:
REMARK  status: ('A' for Active; 'I' for Inactive)
REMARK    1  A    between atoms: C_2  and  C_3 
REMARK    2  A    between atoms: C_3  and  N_4 
REMARK    3  A    between atoms: N_4  and  C_5 
REMARK    4  A    between atoms: N_4  and  C_21 
REMARK    5  A    between atoms: C_5  and  C_6 
REMARK    6  A    between atoms: C_6  and  C_7 
REMARK    7  A    between atoms: C_7  and  C_8 
REMARK    8  A    between atoms: C_8  and  N_9 
REMARK       I    between atoms: N_9  and  C_10 
REMARK    9  A    between atoms: C_10  and  C_12 
REMARK   10  A    between atoms: C_21  and  C_22 
REMARK   11  A    between atoms: C_24  and  C_25 
ROOT
ATOM      1  C   UNL d   1       7.089   4.112 -12.093  0.00  0.00     0.250 C 
ENDROOT
BRANCH   1   2
ATOM      2  N   UNL d   1       6.792   3.849 -13.495  0.00  0.00     0.137 N 
BRANCH   2   3
ATOM      3  C   UNL d   1       5.445   3.372 -13.694  0.00  0.00     0.250 C 
BRANCH   3   4
ATOM      4  C   UNL d   1       4.420   4.410 -13.422  0.00  0.00     0.035 C 
ATOM      5  C   UNL d   1       3.005   3.935 -13.262  0.00  0.00     0.002 C 
ENDBRANCH   3   4
ENDBRANCH   2   3
BRANCH   2   6
ATOM      6  C   UNL d   1       7.706   2.889 -14.110  0.00  0.00     0.251 C 
BRANCH   6   7
ATOM      7  C   UNL d   1       7.256   1.437 -14.194  0.00  0.00     0.038 A 
ATOM      8  C   UNL d   1       8.018   0.513 -15.110  0.00  0.00     0.024 A 
ATOM      9  C   UNL d   1       6.620   0.940 -15.469  0.00  0.00     0.007 A 
BRANCH   8  10
ATOM     10  C   UNL d   1       9.198   1.020 -15.884  0.00  0.00    -0.022 A 
ATOM     11  C   UNL d   1       9.189   1.005 -17.295  0.00  0.00    -0.002 A 
ATOM     12  C   UNL d   1      10.279   1.529 -18.017  0.00  0.00     0.029 A 
ATOM     13  C   UNL d   1      11.380   2.081 -17.336  0.00  0.00     0.140 A 
ATOM     14  C   UNL d   1      11.384   2.123 -15.932  0.00  0.00     0.029 A 
ATOM     15  F   UNL d   1      12.438   2.561 -18.031  0.00  0.00    -0.204 F 
ATOM     16  C   UNL d   1      10.305   1.582 -15.210  0.00  0.00    -0.002 A 
ENDBRANCH   8  10
ENDBRANCH   6   7
ENDBRANCH   2   6
ENDBRANCH   1   2
BRANCH   1  17
ATOM     17  C   UNL d   1       8.410   4.871 -11.954  0.00  0.00     0.037 C 
BRANCH  17  18
ATOM     18  C   UNL d   1       8.746   5.165 -10.491  0.00  0.00     0.029 C 
BRANCH  18  19
ATOM     19  C   UNL d   1       9.539   6.467 -10.320  0.00  0.00     0.129 C 
BRANCH  19  20
ATOM     20  N   UNL d   1       9.869   6.712  -8.920  0.00  0.00    -0.233 NA
ATOM     21  C   UNL d   1      10.469   7.823  -8.464  0.00  0.00     0.293 C 
ATOM     22  O   UNL d   1      10.709   8.808  -9.162  0.00  0.00    -0.264 OA
BRANCH  21  23
ATOM     23  C   UNL d   1      10.812   7.816  -7.026  0.00  0.00     0.139 A 
ATOM     24  N   UNL d   1      10.909   9.013  -6.328  0.00  0.00    -0.241 NA
ATOM     25  C   UNL d   1      11.288   8.789  -5.018  0.00  0.00     0.082 A 
ATOM     26  C   UNL d   1      11.456   7.380  -4.901  0.00  0.00     0.019 A 
ATOM     27  C   UNL d   1      11.499   9.650  -3.928  0.00  0.00     0.019 A 
ATOM     28  C   UNL d   1      11.157   6.795  -6.177  0.00  0.00     0.025 A 
ATOM     29  C   UNL d   1      11.857   6.876  -3.642  0.00  0.00     0.002 A 
ATOM     30  C   UNL d   1      12.085   7.733  -2.549  0.00  0.00     0.000 A 
ATOM     31  C   UNL d   1      11.907   9.120  -2.692  0.00  0.00     0.002 A 
ENDBRANCH  21  23
ENDBRANCH  19  20
ENDBRANCH  18  19
ENDBRANCH  17  18
ENDBRANCH   1  17
TORSDOF 11
