REMARK  8 active torsions:
REMARK  status: ('A' for Active; 'I' for Inactive)
REMARK    1  A    between atoms: C_2  and  C_3 
REMARK    2  A    between atoms: C_7  and  N_8 
REMARK    3  A    between atoms: N_11  and  C_12 
REMARK    4  A    between atoms: C_12  and  C_13 
REMARK    5  A    between atoms: C_13  and  C_15 
REMARK    6  A    between atoms: C_15  and  C_16 
REMARK    7  A    between atoms: C_16  and  N_17 
REMARK       I    between atoms: N_17  and  C_18 
REMARK    8  A    between atoms: C_18  and  C_20 
ROOT
ATOM      1  N   UNL d   1      10.015   8.082  -7.814  0.00  0.00    -0.344 N 
ATOM      2  C   UNL d   1       8.681   7.597  -7.535  0.00  0.00     0.137 C 
ATOM      3  C   UNL d   1       8.543   6.159  -8.080  0.00  0.00     0.274 C 
ATOM      4  N   UNL d   1       8.931   6.082  -9.490  0.00  0.00     0.144 N 
ATOM      5  C   UNL d   1      10.320   6.521  -9.649  0.00  0.00     0.274 C 
ATOM      6  C   UNL d   1      10.489   7.973  -9.187  0.00  0.00     0.137 C 
ENDROOT
BRANCH   4   7
ATOM      7  C   UNL d   1       8.728   4.739  -9.994  0.00  0.00     0.283 C 
BRANCH   7   8
ATOM      8  C   UNL d   1       8.343   4.713 -11.469  0.00  0.00     0.188 C 
ATOM      9  O   UNL d   1       7.178   5.512 -11.617  0.00  0.00    -0.221 OA
BRANCH   8  10
ATOM     10  C   UNL d   1       9.423   5.185 -12.464  0.00  0.00     0.061 C 
BRANCH  10  11
ATOM     11  C   UNL d   1       9.019   5.110 -13.937  0.00  0.00     0.132 C 
BRANCH  11  12
ATOM     12  N   UNL d   1       8.621   3.788 -14.392  0.00  0.00    -0.232 NA
ATOM     13  C   UNL d   1       7.431   3.197 -14.149  0.00  0.00     0.311 C 
ATOM     14  O   UNL d   1       6.518   3.710 -13.503  0.00  0.00    -0.262 OA
BRANCH  13  15
ATOM     15  C   UNL d   1       7.264   1.876 -14.783  0.00  0.00     0.221 A 
ATOM     16  N   UNL d   1       8.040   1.505 -15.812  0.00  0.00    -0.226 NA
ATOM     17  C   UNL d   1       7.564   0.289 -16.255  0.00  0.00     0.080 A 
ATOM     18  C   UNL d   1       6.517  -0.035 -15.425  0.00  0.00     0.116 A 
ATOM     19  C   UNL d   1       8.166  -0.417 -17.396  0.00  0.00     0.054 C 
ATOM     20  N   UNL d   1       6.340   0.967 -14.485  0.00  0.00    -0.220 NA
ENDBRANCH  13  15
ENDBRANCH  11  12
ENDBRANCH  10  11
ENDBRANCH   8  10
ENDBRANCH   7   8
ENDBRANCH   4   7
BRANCH   1  21
ATOM     21  C   UNL d   1      10.832   8.569  -6.790  0.00  0.00     0.067 A 
ATOM     22  C   UNL d   1      11.488   9.778  -7.016  0.00  0.00     0.018 A 
ATOM     23  C   UNL d   1      12.348  10.269  -6.033  0.00  0.00     0.001 A 
ATOM     24  C   UNL d   1      12.597   9.583  -4.845  0.00  0.00    -0.003 A 
ATOM     25  C   UNL d   1      11.903   8.383  -4.581  0.00  0.00    -0.010 A 
ATOM     26  C   UNL d   1      11.061   7.895  -5.582  0.00  0.00     0.069 A 
ATOM     27 CL   UNL d   1      10.393   6.390  -5.325  0.00  0.00    -0.081 Cl
BRANCH  25  28
ATOM     28  C   UNL d   1      12.172   7.652  -3.275  0.00  0.00     0.027 C 
ATOM     29  C   UNL d   1      12.145   8.586  -2.073  0.00  0.00     0.005 C 
ENDBRANCH  25  28
ENDBRANCH   1  21
TORSDOF 8
