REMARK  5 active torsions:
REMARK  status: ('A' for Active; 'I' for Inactive)
REMARK    1  A    between atoms: C_2  and  C_3 
REMARK    2  A    between atoms: C_3  and  C_4 
REMARK    3  A    between atoms: C_6  and  C_7 
REMARK    4  A    between atoms: C_7  and  N_8 
REMARK    5  A    between atoms: C_11  and  C_12 
ROOT
ATOM      1  N   UNL d   1      10.452   7.603  -9.099  0.00  0.00     0.143 N 
ATOM      2  C   UNL d   1      11.738   8.277  -9.002  0.00  0.00     0.251 C 
ATOM      3  C   UNL d   1      11.537   9.197  -7.822  0.00  0.00     0.042 C 
ATOM      4  C   UNL d   1      10.527   8.491  -6.917  0.00  0.00     0.058 C 
ATOM      5  C   UNL d   1      10.193   7.231  -7.721  0.00  0.00     0.255 C 
ENDROOT
BRANCH   1   6
ATOM      6  C   UNL d   1      10.589   6.415  -9.901  0.00  0.00     0.296 C 
BRANCH   6   7
ATOM      7  C   UNL d   1       9.470   5.915 -10.739  0.00  0.00     0.099 A 
ATOM      8  N   UNL d   1       9.690   5.684 -12.095  0.00  0.00    -0.245 NA
ATOM      9  C   UNL d   1       8.611   5.194 -12.706  0.00  0.00     0.088 A 
ATOM     10  S   UNL d   1       7.236   5.029 -11.637  0.00  0.00    -0.070 SA
ATOM     11  C   UNL d   1       8.226   5.589 -10.319  0.00  0.00     0.053 A 
BRANCH   9  12
ATOM     12  C   UNL d   1       8.591   4.792 -14.139  0.00  0.00     0.053 C 
BRANCH  12  13
ATOM     13  C   UNL d   1       9.158   3.391 -14.416  0.00  0.00     0.007 C 
ATOM     14  C   UNL d   1      10.613   3.217 -13.959  0.00  0.00     0.000 C 
ENDBRANCH  12  13
ENDBRANCH   9  12
ENDBRANCH   6   7
ENDBRANCH   1   6
BRANCH   4  15
ATOM     15  C   UNL d   1      11.038   8.287  -5.492  0.00  0.00    -0.021 A 
ATOM     16  C   UNL d   1      11.062   7.010  -4.873  0.00  0.00    -0.004 A 
ATOM     17  C   UNL d   1      11.598   6.859  -3.580  0.00  0.00    -0.000 A 
ATOM     18  C   UNL d   1      12.080   7.971  -2.866  0.00  0.00    -0.000 A 
ATOM     19  C   UNL d   1      12.028   9.246  -3.459  0.00  0.00    -0.000 A 
ATOM     20  C   UNL d   1      11.513   9.401  -4.764  0.00  0.00    -0.004 A 
ENDBRANCH   4  15
TORSDOF 5
