REMARK  13 active torsions:
REMARK  status: ('A' for Active; 'I' for Inactive)
REMARK    1  A    between atoms: C_9  and  C_10 
REMARK    2  A    between atoms: C_10  and  C_12 
REMARK    3  A    between atoms: C_12  and  N_13 
REMARK    4  A    between atoms: N_13  and  C_14 
REMARK    5  A    between atoms: C_14  and  C_15 
REMARK    6  A    between atoms: C_15  and  S_16 
REMARK    7  A    between atoms: S_16  and  C_18 
REMARK    8  A    between atoms: C_18  and  C_19 
REMARK    9  A    between atoms: C_19  and  C_20 
REMARK   10  A    between atoms: C_20  and  N_21 
REMARK   11  A    between atoms: N_21  and  C_22 
REMARK   12  A    between atoms: C_22  and  C_23 
REMARK   13  A    between atoms: C_23  and  C_24 
ROOT
ATOM      1  C   UNL d   1       7.283   1.823 -14.205  0.00  0.00     0.304 C 
ENDROOT
BRANCH   1   2
ATOM      2  N   UNL d   1       7.542   1.257 -15.524  0.00  0.00     0.343 N 
BRANCH   2   3
ATOM      3  C   UNL d   1       8.720   0.391 -15.592  0.00  0.00     0.327 C 
BRANCH   3   4
ATOM      4  C   UNL d   1       9.355   0.435 -17.002  0.00  0.00     0.211 C 
ATOM      5  O   UNL d   1      10.557  -0.306 -16.985  0.00  0.00    -0.216 OA
BRANCH   4   6
ATOM      6  C   UNL d   1       9.574   1.865 -17.516  0.00  0.00     0.018 A 
ATOM      7  C   UNL d   1       8.957   2.277 -18.726  0.00  0.00     0.001 A 
ATOM      8  C   UNL d   1       9.106   3.599 -19.211  0.00  0.00     0.029 A 
ATOM      9  C   UNL d   1       9.865   4.552 -18.498  0.00  0.00     0.149 A 
ATOM     10  C   UNL d   1      10.488   4.142 -17.301  0.00  0.00     0.116 A 
ATOM     11  O   UNL d   1       9.978   5.823 -18.976  0.00  0.00    -0.189 OA
ATOM     12  N   UNL d   1      11.274   4.960 -16.456  0.00  0.00    -0.200 NA
ATOM     13  C   UNL d   1      10.352   2.833 -16.834  0.00  0.00     0.052 A 
ATOM     14  C   UNL d   1      11.770   4.324 -15.324  0.00  0.00     0.311 A 
ATOM     15  O   UNL d   1      12.471   4.792 -14.434  0.00  0.00    -0.258 OA
ATOM     16  S   UNL d   1      11.225   2.602 -15.341  0.00  0.00    -0.024 SA
ENDBRANCH   4   6
ENDBRANCH   3   4
ENDBRANCH   2   3
ENDBRANCH   1   2
BRANCH   1  17
ATOM     17  C   UNL d   1       6.792   3.266 -14.318  0.00  0.00     0.130 C 
BRANCH  17  18
ATOM     18  S   UNL d   1       6.284   3.918 -12.665  0.00  0.00     0.044 S 
ATOM     19  O   UNL d   1       5.474   5.186 -12.958  0.00  0.00    -0.256 OA
BRANCH  18  20
ATOM     20  C   UNL d   1       7.976   4.441 -12.118  0.00  0.00     0.094 C 
BRANCH  20  21
ATOM     21  C   UNL d   1       7.891   4.815 -10.639  0.00  0.00     0.052 C 
BRANCH  21  22
ATOM     22  C   UNL d   1       9.256   5.194 -10.072  0.00  0.00     0.291 C 
BRANCH  22  23
ATOM     23  N   UNL d   1       9.147   5.305  -8.631  0.00  0.00     0.339 N 
BRANCH  23  24
ATOM     24  C   UNL d   1      10.148   6.174  -8.036  0.00  0.00     0.295 C 
BRANCH  24  25
ATOM     25  C   UNL d   1       9.477   7.006  -6.935  0.00  0.00     0.065 C 
BRANCH  25  26
ATOM     26  C   UNL d   1      10.496   7.785  -6.132  0.00  0.00    -0.019 A 
ATOM     27  C   UNL d   1      11.058   7.198  -4.983  0.00  0.00     0.007 A 
ATOM     28  C   UNL d   1      11.960   7.924  -4.190  0.00  0.00     0.057 A 
ATOM     29  C   UNL d   1      12.353   9.218  -4.578  0.00  0.00     0.011 A 
ATOM     30 CL   UNL d   1      12.569   7.224  -2.739  0.00  0.00    -0.082 Cl
ATOM     31  C   UNL d   1      11.825   9.796  -5.749  0.00  0.00     0.001 A 
ATOM     32  C   UNL d   1      10.888   9.084  -6.526  0.00  0.00    -0.004 A 
ENDBRANCH  25  26
ENDBRANCH  24  25
ENDBRANCH  23  24
ENDBRANCH  22  23
ENDBRANCH  21  22
ENDBRANCH  20  21
ENDBRANCH  18  20
ENDBRANCH  17  18
ENDBRANCH   1  17
TORSDOF 13
