REMARK  9 active torsions:
REMARK  status: ('A' for Active; 'I' for Inactive)
REMARK    1  A    between atoms: C_2  and  O_3 
REMARK    2  A    between atoms: O_3  and  C_4 
REMARK    3  A    between atoms: C_4  and  C_6 
REMARK    4  A    between atoms: N_10  and  C_11 
REMARK    5  A    between atoms: C_11  and  C_12 
REMARK    6  A    between atoms: C_12  and  C_13 
REMARK    7  A    between atoms: C_13  and  C_14 
REMARK    8  A    between atoms: C_14  and  S_17 
REMARK    9  A    between atoms: S_17  and  C_20 
ROOT
ATOM      1  C   UNL d   1       9.620   5.841 -10.949  0.00  0.00     0.036 C 
ENDROOT
BRANCH   1   2
ATOM      2  C   UNL d   1       8.835   5.920 -12.289  0.00  0.00     0.250 C 
BRANCH   2   3
ATOM      3  N   UNL d   1       8.950   4.726 -13.150  0.00  0.00     0.138 N 
ATOM      4  C   UNL d   1      10.031   3.797 -12.797  0.00  0.00     0.250 C 
ATOM      5  C   UNL d   1      10.083   2.587 -13.698  0.00  0.00     0.036 C 
ATOM      6  C   UNL d   1      10.322   2.972 -15.148  0.00  0.00     0.014 C 
ATOM      7  C   UNL d   1       9.262   3.989 -15.536  0.00  0.00     0.120 C 
ATOM      8  C   UNL d   1       9.184   5.146 -14.520  0.00  0.00     0.260 C 
BRANCH   7   9
ATOM      9  C   UNL d   1       9.548   4.463 -16.966  0.00  0.00     0.273 C 
ATOM     10  O   UNL d   1       9.096   3.854 -17.939  0.00  0.00    -0.264 OA
BRANCH   9  11
ATOM     11  O   UNL d   1      10.348   5.552 -17.018  0.00  0.00    -0.302 OA
BRANCH  11  12
ATOM     12  C   UNL d   1      10.665   6.170 -18.254  0.00  0.00     0.152 C 
ATOM     13  C   UNL d   1       9.427   6.843 -18.886  0.00  0.00     0.035 C 
ENDBRANCH  11  12
ENDBRANCH   9  11
ENDBRANCH   7   9
ENDBRANCH   2   3
ENDBRANCH   1   2
BRANCH   1  14
ATOM     14  C   UNL d   1       9.181   6.803  -9.874  0.00  0.00     0.017 C 
BRANCH  14  15
ATOM     15  C   UNL d   1      10.149   6.858  -8.678  0.00  0.00     0.099 C 
ATOM     16  C   UNL d   1      10.436   5.463  -8.108  0.00  0.00     0.016 C 
ATOM     17  C   UNL d   1      11.432   7.638  -9.011  0.00  0.00     0.016 C 
BRANCH  15  18
ATOM     18  S   UNL d   1       9.246   7.748  -7.358  0.00  0.00     0.188 S 
ATOM     19  O   UNL d   1       8.851   9.071  -7.897  0.00  0.00    -0.222 OA
ATOM     20  O   UNL d   1       8.275   6.786  -6.844  0.00  0.00    -0.222 OA
BRANCH  18  21
ATOM     21  C   UNL d   1      10.387   8.062  -6.044  0.00  0.00     0.084 A 
ATOM     22  C   UNL d   1      10.723   9.418  -5.758  0.00  0.00     0.011 A 
ATOM     23  C   UNL d   1      11.561   9.668  -4.688  0.00  0.00     0.001 A 
ATOM     24  C   UNL d   1      12.154   8.633  -3.930  0.00  0.00     0.000 A 
ATOM     25  C   UNL d   1      11.810   7.285  -4.210  0.00  0.00     0.001 A 
ATOM     26  C   UNL d   1      10.877   7.024  -5.230  0.00  0.00     0.011 A 
ENDBRANCH  18  21
ENDBRANCH  15  18
ENDBRANCH  14  15
ENDBRANCH   1  14
TORSDOF 9
