REMARK  9 active torsions:
REMARK  status: ('A' for Active; 'I' for Inactive)
REMARK    1  A    between atoms: O_2  and  C_3 
REMARK    2  A    between atoms: C_8  and  N_9 
REMARK    3  A    between atoms: N_12  and  C_13 
REMARK    4  A    between atoms: C_13  and  C_14 
REMARK    5  A    between atoms: C_14  and  C_15 
REMARK    6  A    between atoms: C_15  and  C_16 
REMARK    7  A    between atoms: C_16  and  C_17 
REMARK    8  A    between atoms: N_19  and  C_20 
REMARK    9  A    between atoms: C_23  and  S_24 
ROOT
ATOM      1  C   UNL d   1       9.830   3.396 -14.027  0.00  0.00     0.036 C 
ENDROOT
BRANCH   1   2
ATOM      2  C   UNL d   1       8.625   3.428 -14.973  0.00  0.00     0.250 C 
BRANCH   2   3
ATOM      3  N   UNL d   1       8.503   2.167 -15.697  0.00  0.00     0.141 N 
ATOM      4  C   UNL d   1       7.812   2.366 -16.981  0.00  0.00     0.274 C 
ATOM      5  C   UNL d   1       7.687   1.036 -17.747  0.00  0.00     0.137 C 
ATOM      6  N   UNL d   1       7.006   0.069 -16.910  0.00  0.00    -0.343 N 
ATOM      7  C   UNL d   1       7.597  -0.117 -15.592  0.00  0.00     0.137 C 
ATOM      8  C   UNL d   1       7.728   1.228 -14.875  0.00  0.00     0.274 C 
BRANCH   6   9
ATOM      9  C   UNL d   1       5.902  -0.667 -17.376  0.00  0.00     0.079 A 
ATOM     10  C   UNL d   1       4.756  -0.884 -16.561  0.00  0.00     0.110 A 
ATOM     11  C   UNL d   1       3.672  -1.609 -17.107  0.00  0.00     0.026 A 
ATOM     12  C   UNL d   1       3.705  -2.108 -18.422  0.00  0.00     0.002 A 
ATOM     13  C   UNL d   1       4.835  -1.892 -19.218  0.00  0.00     0.002 A 
ATOM     14  C   UNL d   1       5.931  -1.180 -18.695  0.00  0.00     0.019 A 
BRANCH  10  15
ATOM     15  O   UNL d   1       4.724  -0.349 -15.283  0.00  0.00    -0.327 OA
ATOM     16  C   UNL d   1       3.557  -0.528 -14.491  0.00  0.00     0.181 C 
ENDBRANCH  10  15
ENDBRANCH   6   9
ENDBRANCH   2   3
ENDBRANCH   1   2
BRANCH   1  17
ATOM     17  C   UNL d   1      10.031   4.721 -13.279  0.00  0.00     0.009 C 
BRANCH  17  18
ATOM     18  C   UNL d   1       8.995   4.940 -12.158  0.00  0.00     0.049 C 
BRANCH  18  19
ATOM     19  C   UNL d   1       9.408   6.006 -11.193  0.00  0.00     0.101 A 
ATOM     20  N   UNL d   1       9.454   7.349 -11.554  0.00  0.00    -0.133 NA
ATOM     21  N   UNL d   1       9.863   8.046 -10.530  0.00  0.00    -0.060 NA
ATOM     22  N   UNL d   1      10.060   7.186  -9.497  0.00  0.00    -0.209 N 
ATOM     23  C   UNL d   1       9.786   5.888  -9.887  0.00  0.00     0.119 A 
BRANCH  22  24
ATOM     24  C   UNL d   1      10.492   7.650  -8.226  0.00  0.00     0.085 A 
ATOM     25  C   UNL d   1      11.004   8.959  -8.051  0.00  0.00     0.020 A 
ATOM     26  C   UNL d   1      11.420   9.404  -6.776  0.00  0.00     0.008 A 
ATOM     27  C   UNL d   1      11.335   8.539  -5.664  0.00  0.00     0.025 A 
ATOM     28  C   UNL d   1      10.826   7.235  -5.834  0.00  0.00     0.008 A 
ATOM     29  C   UNL d   1      10.408   6.800  -7.103  0.00  0.00     0.020 A 
BRANCH  27  30
ATOM     30  S   UNL d   1      11.856   9.119  -4.074  0.00  0.00    -0.113 SA
ATOM     31  C   UNL d   1      12.115   7.664  -3.019  0.00  0.00     0.074 C 
ENDBRANCH  27  30
ENDBRANCH  22  24
ENDBRANCH  18  19
ENDBRANCH  17  18
ENDBRANCH   1  17
TORSDOF 9
