REMARK  2 active torsions:
REMARK  status: ('A' for Active; 'I' for Inactive)
REMARK    1  A    between atoms: C_2  and  N_3 
REMARK    2  A    between atoms: C_6  and  C_7 
ROOT
ATOM      1  C   UNL d   1       9.092   3.631 -14.585  0.00  0.00    -0.004 C 
ATOM      2  C   UNL d   1       8.478   2.530 -15.078  0.00  0.00    -0.001 C 
ATOM      3  C   UNL d   1       7.353   1.768 -14.508  0.00  0.00    -0.004 A 
ATOM      4  C   UNL d   1       7.378   0.356 -14.614  0.00  0.00    -0.000 A 
ATOM      5  C   UNL d   1       6.353  -0.428 -14.050  0.00  0.00    -0.000 A 
ATOM      6  C   UNL d   1       5.290   0.193 -13.378  0.00  0.00    -0.000 A 
ATOM      7  C   UNL d   1       5.272   1.586 -13.239  0.00  0.00    -0.004 A 
ATOM      8  C   UNL d   1       6.284   2.373 -13.803  0.00  0.00    -0.018 A 
ATOM      9  C   UNL d   1       6.200   3.864 -13.649  0.00  0.00     0.053 C 
ATOM     10  C   UNL d   1       7.361   4.402 -12.848  0.00  0.00    -0.018 A 
ATOM     11  C   UNL d   1       7.063   5.047 -11.629  0.00  0.00    -0.004 A 
ATOM     12  C   UNL d   1       8.089   5.590 -10.833  0.00  0.00    -0.000 A 
ATOM     13  C   UNL d   1       9.408   5.535 -11.289  0.00  0.00    -0.000 A 
ATOM     14  C   UNL d   1       9.682   4.912 -12.505  0.00  0.00    -0.000 A 
ATOM     15  C   UNL d   1       8.700   4.310 -13.316  0.00  0.00    -0.004 A 
ENDROOT
BRANCH   1  16
ATOM     16  C   UNL d   1      10.230   4.147 -15.351  0.00  0.00    -0.022 C 
ATOM     17  C   UNL d   1      10.045   4.903 -16.446  0.00  0.00     0.005 C 
ATOM     18  C   UNL d   1      11.187   5.484 -17.277  0.00  0.00     0.276 C 
ATOM     19  N   UNL d   1      12.482   5.384 -16.600  0.00  0.00     0.142 N 
ATOM     20  C   UNL d   1      12.672   4.033 -16.094  0.00  0.00     0.255 C 
ATOM     21  C   UNL d   1      11.661   3.756 -14.986  0.00  0.00     0.061 C 
BRANCH  19  22
ATOM     22  C   UNL d   1      13.552   5.760 -17.520  0.00  0.00     0.251 C 
ATOM     23  C   UNL d   1      14.857   6.073 -16.773  0.00  0.00     0.037 C 
ENDBRANCH  19  22
ENDBRANCH   1  16
TORSDOF 2
