REMARK  4 active torsions:
REMARK  status: ('A' for Active; 'I' for Inactive)
REMARK       I    between atoms: N_10  and  C_11 
REMARK    1  A    between atoms: C_11  and  C_13 
REMARK    2  A    between atoms: C_13  and  C_14 
REMARK    3  A    between atoms: N_17  and  C_18 
REMARK    4  A    between atoms: C_18  and  C_19 
ROOT
ATOM      1  C   UNL d   1       8.238   4.455 -13.166  0.00  0.00     0.013 C 
ATOM      2  C   UNL d   1       9.354   5.376 -13.642  0.00  0.00     0.036 C 
ATOM      3  C   UNL d   1       9.357   6.673 -12.828  0.00  0.00     0.251 C 
ATOM      4  N   UNL d   1       9.579   6.369 -11.420  0.00  0.00     0.141 N 
ATOM      5  C   UNL d   1       8.476   5.537 -10.914  0.00  0.00     0.251 C 
ATOM      6  C   UNL d   1       8.424   4.229 -11.669  0.00  0.00     0.036 C 
ENDROOT
BRANCH   1   7
ATOM      7  C   UNL d   1       8.279   3.151 -13.941  0.00  0.00     0.088 C 
BRANCH   7   8
ATOM      8  C   UNL d   1       6.947   2.399 -14.055  0.00  0.00     0.237 C 
ATOM      9  N   UNL d   1       6.872   1.415 -14.979  0.00  0.00    -0.301 N 
ATOM     10  C   UNL d   1       7.811   1.226 -16.118  0.00  0.00     0.093 A 
ATOM     11  C   UNL d   1       5.811   0.488 -15.060  0.00  0.00     0.058 A 
ATOM     12  C   UNL d   1       9.306   0.942 -15.742  0.00  0.00     0.025 C 
ATOM     13  C   UNL d   1       7.236   0.038 -16.919  0.00  0.00     0.051 A 
ATOM     14  C   UNL d   1       5.976  -0.328 -16.183  0.00  0.00    -0.004 A 
ATOM     15  C   UNL d   1       5.040  -1.332 -16.499  0.00  0.00    -0.003 A 
ATOM     16  C   UNL d   1       3.908  -1.478 -15.675  0.00  0.00    -0.000 A 
ATOM     17  C   UNL d   1       3.723  -0.666 -14.547  0.00  0.00     0.002 A 
ATOM     18  C   UNL d   1       4.675   0.305 -14.212  0.00  0.00     0.017 A 
ATOM     19  O   UNL d   1       6.030   2.716 -13.290  0.00  0.00    -0.272 OA
ENDBRANCH   7   8
ENDBRANCH   1   7
BRANCH   4  20
ATOM     20  C   UNL d   1       9.637   7.639 -10.695  0.00  0.00     0.277 C 
BRANCH  20  21
ATOM     21  C   UNL d   1      10.074   7.541  -9.234  0.00  0.00     0.011 A 
ATOM     22  C   UNL d   1      11.325   8.068  -8.848  0.00  0.00    -0.002 A 
ATOM     23  C   UNL d   1      11.736   7.992  -7.503  0.00  0.00     0.011 A 
ATOM     24  C   UNL d   1      10.934   7.346  -6.537  0.00  0.00     0.058 A 
ATOM     25  C   UNL d   1       9.683   6.827  -6.918  0.00  0.00     0.011 A 
ATOM     26 CL   UNL d   1      11.468   7.221  -4.896  0.00  0.00    -0.082 Cl
ATOM     27  C   UNL d   1       9.243   6.959  -8.248  0.00  0.00    -0.002 A 
ENDBRANCH  20  21
ENDBRANCH   4  20
TORSDOF 4
