REMARK  1 active torsions:
REMARK  status: ('A' for Active; 'I' for Inactive)
REMARK    1  A    between atoms: CA_2  and  C_3 
ROOT
ATOM      1  C   GLY d   1       9.352   7.197  -6.919  0.00  0.00     0.227 C 
ATOM      2  O   GLY d   1      10.333   6.798  -6.295  0.00  0.00    -0.646 OA
ATOM      3  OXT GLY d   1       8.261   6.434  -7.240  0.00  0.00    -0.646 OA
ENDROOT
BRANCH   1   4
ATOM      4  CA  GLY d   1       9.244   8.622  -7.442  0.00  0.00     0.434 C 
ATOM      5  N   GLY d   1       9.460   8.655  -8.881  0.00  0.00     0.631 N 
ENDBRANCH   1   4
TORSDOF 1
