REMARK  6 active torsions:
REMARK  status: ('A' for Active; 'I' for Inactive)
REMARK    1  A    between atoms: C_2  and  C_3 
REMARK    2  A    between atoms: C_3  and  C_4 
REMARK    3  A    between atoms: C_4  and  O_6 
REMARK    4  A    between atoms: O_6  and  C_7 
REMARK    5  A    between atoms: N_21  and  C_22 
REMARK    6  A    between atoms: C_22  and  C_23 
ROOT
ATOM      1  C   UNL d   1      11.378   3.326 -15.909  0.00  0.00     0.103 A 
ATOM      2  C   UNL d   1      12.040   2.457 -16.803  0.00  0.00     0.025 A 
ATOM      3  C   UNL d   1      11.597   1.139 -16.965  0.00  0.00     0.002 A 
ATOM      4  C   UNL d   1      10.492   0.688 -16.219  0.00  0.00    -0.004 A 
ATOM      5  C   UNL d   1       9.839   1.552 -15.316  0.00  0.00    -0.018 A 
ATOM      6  C   UNL d   1      10.295   2.870 -15.108  0.00  0.00     0.019 A 
ATOM      7  C   UNL d   1       9.565   3.707 -14.116  0.00  0.00    -0.001 A 
ATOM      8  C   UNL d   1      10.167   4.787 -13.422  0.00  0.00    -0.000 A 
ATOM      9  C   UNL d   1       9.482   5.574 -12.469  0.00  0.00    -0.000 A 
ATOM     10  C   UNL d   1       8.153   5.288 -12.149  0.00  0.00    -0.004 A 
ATOM     11  C   UNL d   1       7.507   4.214 -12.781  0.00  0.00    -0.022 A 
ATOM     12  C   UNL d   1       8.221   3.437 -13.734  0.00  0.00     0.005 A 
ATOM     13  C   UNL d   1       7.547   2.227 -14.430  0.00  0.00     0.245 C 
ATOM     14  C   UNL d   1       8.585   1.081 -14.611  0.00  0.00     0.064 C 
ATOM     15  N   UNL d   1       6.318   1.734 -13.778  0.00  0.00     0.140 N 
ATOM     16  C   UNL d   1       5.460   2.885 -13.514  0.00  0.00     0.255 C 
ATOM     17  C   UNL d   1       6.109   3.744 -12.441  0.00  0.00     0.061 C 
ENDROOT
BRANCH   1  18
ATOM     18  O   UNL d   1      11.812   4.621 -15.873  0.00  0.00    -0.276 OA
BRANCH  18  19
ATOM     19  C   UNL d   1      11.454   5.480 -16.865  0.00  0.00     0.276 C 
ATOM     20  O   UNL d   1      11.889   6.627 -16.949  0.00  0.00    -0.264 OA
BRANCH  19  21
ATOM     21  C   UNL d   1      10.461   4.930 -17.915  0.00  0.00     0.096 C 
BRANCH  21  22
ATOM     22  C   UNL d   1       9.517   5.974 -18.533  0.00  0.00     0.010 C 
ATOM     23  C   UNL d   1      10.205   6.997 -19.444  0.00  0.00     0.001 C 
ENDBRANCH  21  22
ENDBRANCH  19  21
ENDBRANCH  18  19
ENDBRANCH   1  18
BRANCH  15  24
ATOM     24  C   UNL d   1       5.603   0.712 -14.560  0.00  0.00     0.251 C 
BRANCH  24  25
ATOM     25  C   UNL d   1       4.551  -0.005 -13.705  0.00  0.00     0.035 C 
ATOM     26  C   UNL d   1       3.836  -1.113 -14.473  0.00  0.00     0.002 C 
ENDBRANCH  24  25
ENDBRANCH  15  24
TORSDOF 6
