REMARK  7 active torsions:
REMARK  status: ('A' for Active; 'I' for Inactive)
REMARK    1  A    between atoms: C_6  and  C_7 
REMARK       I    between atoms: C_7  and  N_9 
REMARK    2  A    between atoms: N_9  and  C_10 
REMARK    3  A    between atoms: C_13  and  C_14 
REMARK    4  A    between atoms: C_14  and  C_15 
REMARK    5  A    between atoms: C_15  and  N_16 
REMARK    6  A    between atoms: C_22  and  O_23 
REMARK    7  A    between atoms: O_23  and  S_24 
ROOT
ATOM      1  C   UNL d   1       8.777   4.824 -11.560  0.00  0.00     0.107 C 
ATOM      2  C   UNL d   1       7.551   5.308 -12.328  0.00  0.00     0.024 C 
ATOM      3  C   UNL d   1       7.008   4.174 -13.196  0.00  0.00     0.002 C 
ATOM      4  C   UNL d   1       8.075   3.601 -14.152  0.00  0.00     0.002 C 
ATOM      5  C   UNL d   1       9.354   3.220 -13.399  0.00  0.00     0.002 C 
ATOM      6  C   UNL d   1       9.854   4.315 -12.505  0.00  0.00     0.024 C 
ENDROOT
BRANCH   4   7
ATOM      7  C   UNL d   1       7.476   2.372 -14.870  0.00  0.00     0.035 C 
BRANCH   7   8
ATOM      8  C   UNL d   1       8.574   1.437 -15.415  0.00  0.00     0.250 C 
BRANCH   8   9
ATOM      9  N   UNL d   1       8.075   0.479 -16.401  0.00  0.00     0.138 N 
ATOM     10  C   UNL d   1       9.116  -0.462 -16.789  0.00  0.00     0.255 C 
ATOM     11  C   UNL d   1      10.438   0.160 -17.258  0.00  0.00     0.061 C 
ATOM     12  C   UNL d   1      10.363   0.821 -18.633  0.00  0.00    -0.022 A 
ATOM     13  C   UNL d   1       9.375   1.715 -19.061  0.00  0.00    -0.024 A 
ATOM     14  C   UNL d   1      11.441   0.475 -19.506  0.00  0.00     0.021 A 
ATOM     15  C   UNL d   1       8.177   2.197 -18.239  0.00  0.00     0.061 C 
ATOM     16  C   UNL d   1       9.452   2.283 -20.367  0.00  0.00    -0.003 A 
ATOM     17  C   UNL d   1       7.385   1.060 -17.548  0.00  0.00     0.255 C 
ATOM     18  C   UNL d   1      10.514   1.939 -21.215  0.00  0.00     0.025 A 
ATOM     19  C   UNL d   1      11.507   1.041 -20.787  0.00  0.00     0.113 A 
BRANCH  19  20
ATOM     20  O   UNL d   1      12.537   0.692 -21.622  0.00  0.00    -0.230 OA
BRANCH  20  21
ATOM     21  S   UNL d   1      13.929   1.635 -21.517  0.00  0.00     0.285 S 
ATOM     22  C   UNL d   1      14.910   0.826 -22.834  0.00  0.00     0.172 C 
ATOM     23  O   UNL d   1      13.586   2.996 -21.931  0.00  0.00    -0.197 OA
ATOM     24  O   UNL d   1      14.566   1.367 -20.210  0.00  0.00    -0.197 OA
ENDBRANCH  20  21
ENDBRANCH  19  20
ENDBRANCH   8   9
ENDBRANCH   7   8
ENDBRANCH   4   7
BRANCH   1  25
ATOM     25  N   UNL d   1       9.309   5.934 -10.786  0.00  0.00    -0.236 NA
ATOM     26  C   UNL d   1       9.781   5.828  -9.538  0.00  0.00     0.275 C 
ATOM     27  O   UNL d   1       9.814   4.735  -8.967  0.00  0.00    -0.266 OA
BRANCH  26  28
ATOM     28  C   UNL d   1      10.267   7.132  -8.925  0.00  0.00     0.059 A 
ATOM     29  C   UNL d   1      10.587   7.350  -7.539  0.00  0.00     0.022 A 
ATOM     30  C   UNL d   1      10.500   6.366  -6.579  0.00  0.00     0.003 A 
ATOM     31  C   UNL d   1      11.019   8.583  -7.005  0.00  0.00     0.081 A 
ATOM     32  C   UNL d   1      10.863   6.554  -5.239  0.00  0.00     0.015 A 
ATOM     33  C   UNL d   1      11.255   7.821  -4.834  0.00  0.00     0.059 A 
ATOM     34  C   UNL d   1      11.567   8.075  -3.381  0.00  0.00     0.052 C 
ATOM     35  N   UNL d   1      11.322   8.841  -5.703  0.00  0.00    -0.250 NA
ATOM     36  C   UNL d   1      11.136   9.597  -7.904  0.00  0.00     0.019 A 
ATOM     37  C   UNL d   1      10.918   9.445  -9.271  0.00  0.00     0.002 A 
ATOM     38  C   UNL d   1      10.454   8.235  -9.789  0.00  0.00     0.005 A 
ENDBRANCH  26  28
ENDBRANCH   1  25
TORSDOF 7
