REMARK  8 active torsions:
REMARK  status: ('A' for Active; 'I' for Inactive)
REMARK    1  A    between atoms: O_2  and  C_3 
REMARK    2  A    between atoms: C_3  and  C_5 
REMARK    3  A    between atoms: C_16  and  C_17 
REMARK    4  A    between atoms: C_17  and  N_18 
REMARK    5  A    between atoms: N_18  and  C_19 
REMARK    6  A    between atoms: C_19  and  C_20 
REMARK    7  A    between atoms: C_20  and  C_21 
REMARK    8  A    between atoms: C_21  and  C_22 
ROOT
ATOM      1  C   UNL d   1      13.441   4.932 -17.214  0.00  0.00     0.144 A 
ATOM      2  C   UNL d   1      12.866   5.283 -16.006  0.00  0.00     0.028 A 
ATOM      3  C   UNL d   1      11.695   4.432 -15.798  0.00  0.00     0.044 A 
ATOM      4  C   UNL d   1      10.658   4.222 -14.812  0.00  0.00     0.118 A 
ATOM      5  C   UNL d   1       9.650   3.254 -15.062  0.00  0.00     0.116 A 
ATOM      6  C   UNL d   1       9.666   2.461 -16.221  0.00  0.00     0.028 A 
ATOM      7  C   UNL d   1      10.655   2.624 -17.181  0.00  0.00     0.021 A 
ATOM      8  C   UNL d   1      11.634   3.590 -16.962  0.00  0.00     0.084 A 
ATOM      9  N   UNL d   1      12.687   3.923 -17.769  0.00  0.00    -0.240 NA
ATOM     10  O   UNL d   1       8.623   3.011 -14.191  0.00  0.00    -0.326 OA
ATOM     11  C   UNL d   1       8.388   4.008 -13.215  0.00  0.00     0.181 C 
ATOM     12  C   UNL d   1       9.739   4.409 -12.607  0.00  0.00     0.188 C 
ATOM     13  O   UNL d   1      10.622   4.946 -13.625  0.00  0.00    -0.327 OA
ENDROOT
BRANCH  12  14
ATOM     14  C   UNL d   1       9.477   5.433 -11.501  0.00  0.00     0.323 C 
BRANCH  14  15
ATOM     15  N   UNL d   1       9.124   4.796 -10.237  0.00  0.00     0.342 N 
BRANCH  15  16
ATOM     16  C   UNL d   1       8.588   5.776  -9.303  0.00  0.00     0.291 C 
BRANCH  16  17
ATOM     17  C   UNL d   1       9.694   6.676  -8.716  0.00  0.00     0.043 C 
BRANCH  17  18
ATOM     18  C   UNL d   1       9.150   7.719  -7.732  0.00  0.00     0.029 C 
BRANCH  18  19
ATOM     19  C   UNL d   1      10.208   8.139  -6.730  0.00  0.00    -0.022 A 
ATOM     20  C   UNL d   1      10.905   9.354  -6.882  0.00  0.00    -0.004 A 
ATOM     21  C   UNL d   1      11.864   9.745  -5.931  0.00  0.00    -0.000 A 
ATOM     22  C   UNL d   1      12.139   8.921  -4.823  0.00  0.00    -0.000 A 
ATOM     23  C   UNL d   1      11.460   7.696  -4.681  0.00  0.00    -0.000 A 
ATOM     24  C   UNL d   1      10.501   7.307  -5.635  0.00  0.00    -0.004 A 
ENDBRANCH  18  19
ENDBRANCH  17  18
ENDBRANCH  16  17
ENDBRANCH  15  16
ENDBRANCH  14  15
ENDBRANCH  12  14
BRANCH   1  25
ATOM     25  C   UNL d   1      14.604   5.375 -17.973  0.00  0.00     0.314 C 
ATOM     26  O   UNL d   1      14.825   4.925 -19.101  0.00  0.00    -0.257 OA
BRANCH  25  27
ATOM     27  O   UNL d   1      15.403   6.282 -17.349  0.00  0.00    -0.295 OA
ATOM     28  C   UNL d   1      16.571   6.747 -18.031  0.00  0.00     0.185 C 
ENDBRANCH  25  27
ENDBRANCH   1  25
TORSDOF 8
