REMARK  1 active torsions:
REMARK  status: ('A' for Active; 'I' for Inactive)
REMARK    1  A    between atoms: C_2  and  C_3 
ROOT
ATOM      1  C   UNL d   1       9.433   7.511  -8.457  0.00  0.00     0.175 C 
ATOM      2 CL   UNL d   1      10.563   8.567  -9.349  0.00  0.00    -0.096 Cl
ATOM      3 CL   UNL d   1      10.254   6.028  -7.894  0.00  0.00    -0.096 Cl
ENDROOT
BRANCH   1   4
ATOM      4  C   UNL d   1       8.787   8.264  -7.285  0.00  0.00     0.128 C 
ATOM      5 CL   UNL d   1       9.997   8.787  -6.078  0.00  0.00    -0.111 Cl
ENDBRANCH   1   4
TORSDOF 1
