REMARK  7 active torsions:
REMARK  status: ('A' for Active; 'I' for Inactive)
REMARK    1  A    between atoms: N_5  and  C_6 
REMARK    2  A    between atoms: C_6  and  C_7 
REMARK       I    between atoms: C_7  and  N_9 
REMARK    3  A    between atoms: N_9  and  C_10 
REMARK    4  A    between atoms: C_13  and  C_14 
REMARK    5  A    between atoms: C_14  and  C_15 
REMARK    6  A    between atoms: C_15  and  N_16 
REMARK    7  A    between atoms: N_19  and  C_20 
ROOT
ATOM      1  C   UNL d   1       9.314   6.392 -10.568  0.00  0.00     0.106 C 
ATOM      2  C   UNL d   1       9.546   4.934 -10.190  0.00  0.00     0.024 C 
ATOM      3  C   UNL d   1       9.749   4.090 -11.476  0.00  0.00     0.002 C 
ATOM      4  C   UNL d   1       8.507   4.137 -12.361  0.00  0.00     0.002 C 
ATOM      5  C   UNL d   1       8.258   5.594 -12.761  0.00  0.00     0.002 C 
ATOM      6  C   UNL d   1       8.094   6.488 -11.520  0.00  0.00     0.024 C 
ENDROOT
BRANCH   4   7
ATOM      7  C   UNL d   1       8.727   3.225 -13.571  0.00  0.00     0.035 C 
BRANCH   7   8
ATOM      8  C   UNL d   1       7.405   2.757 -14.190  0.00  0.00     0.250 C 
BRANCH   8   9
ATOM      9  N   UNL d   1       7.617   1.531 -14.960  0.00  0.00     0.141 N 
ATOM     10  C   UNL d   1       6.330   0.856 -15.133  0.00  0.00     0.274 C 
ATOM     11  C   UNL d   1       6.469  -0.428 -15.954  0.00  0.00     0.137 C 
ATOM     12  N   UNL d   1       7.145  -0.155 -17.225  0.00  0.00    -0.343 N 
ATOM     13  C   UNL d   1       8.410   0.567 -17.084  0.00  0.00     0.137 C 
ATOM     14  C   UNL d   1       8.178   1.854 -16.278  0.00  0.00     0.274 C 
BRANCH  12  15
ATOM     15  C   UNL d   1       6.631  -0.559 -18.482  0.00  0.00     0.081 A 
ATOM     16  C   UNL d   1       5.718  -1.636 -18.642  0.00  0.00     0.135 A 
ATOM     17  C   UNL d   1       5.233  -2.002 -19.886  0.00  0.00     0.121 A 
ATOM     18  O   UNL d   1       5.181  -2.477 -17.710  0.00  0.00    -0.298 OA
ATOM     19  C   UNL d   1       5.619  -1.341 -21.064  0.00  0.00     0.026 A 
ATOM     20  O   UNL d   1       4.381  -3.055 -19.769  0.00  0.00    -0.299 OA
ATOM     21  C   UNL d   1       6.530  -0.273 -20.939  0.00  0.00     0.004 A 
ATOM     22  C   UNL d   1       7.016   0.114 -19.673  0.00  0.00     0.019 A 
ATOM     23  C   UNL d   1       4.330  -3.354 -18.399  0.00  0.00     0.304 A 
ENDBRANCH  12  15
ENDBRANCH   8   9
ENDBRANCH   7   8
ENDBRANCH   4   7
BRANCH   1  24
ATOM     24  N   UNL d   1       9.116   7.165  -9.367  0.00  0.00    -0.238 NA
ATOM     25  C   UNL d   1      10.110   7.652  -8.570  0.00  0.00     0.285 C 
ATOM     26  O   UNL d   1      11.304   7.421  -8.745  0.00  0.00    -0.268 OA
BRANCH  25  27
ATOM     27  C   UNL d   1       9.623   8.527  -7.403  0.00  0.00     0.339 C 
BRANCH  27  28
ATOM     28  N   UNL d   1      10.160   8.224  -6.053  0.00  0.00     0.151 N 
ATOM     29  C   UNL d   1      10.751   6.877  -5.915  0.00  0.00     0.286 C 
ATOM     30  C   UNL d   1      11.233   6.564  -4.502  0.00  0.00     0.286 C 
ATOM     31  N   UNL d   1      12.198   7.567  -4.077  0.00  0.00     0.143 N 
ATOM     32  C   UNL d   1      12.709   7.266  -2.759  0.00  0.00     0.285 C 
ATOM     33  C   UNL d   1      11.624   8.911  -4.168  0.00  0.00     0.286 C 
ATOM     34  C   UNL d   1      11.123   9.223  -5.590  0.00  0.00     0.286 C 
ENDBRANCH  27  28
ENDBRANCH  25  27
ENDBRANCH   1  24
TORSDOF 7
