REMARK  7 active torsions:
REMARK  status: ('A' for Active; 'I' for Inactive)
REMARK    1  A    between atoms: C_2  and  C_3 
REMARK       I    between atoms: C_2  and  N_11 
REMARK    2  A    between atoms: C_14  and  C_16 
REMARK    3  A    between atoms: C_16  and  N_17 
REMARK    4  A    between atoms: N_17  and  C_18 
REMARK    5  A    between atoms: C_18  and  C_19 
REMARK    6  A    between atoms: C_19  and  N_20 
REMARK    7  A    between atoms: N_20  and  C_21 
ROOT
ATOM      1  O   UNL d   1       9.859   2.068 -15.312  0.00  0.00    -0.267 OA
ATOM      2  C   UNL d   1       8.710   2.380 -14.961  0.00  0.00     0.257 C 
ATOM      3  N   UNL d   1       8.401   3.584 -14.386  0.00  0.00    -0.317 N 
ATOM      4  C   UNL d   1       9.295   4.776 -14.574  0.00  0.00     0.107 C 
ATOM      5  C   UNL d   1       9.693   5.341 -13.207  0.00  0.00     0.059 C 
ATOM      6  C   UNL d   1       8.494   5.653 -12.296  0.00  0.00     0.172 C 
ATOM      7  F   UNL d   1       7.727   6.604 -12.845  0.00  0.00    -0.238 F 
ATOM      8  C   UNL d   1       7.594   4.407 -12.214  0.00  0.00     0.059 C 
ATOM      9  C   UNL d   1       7.162   3.875 -13.607  0.00  0.00     0.107 C 
ENDROOT
BRANCH   6  10
ATOM     10  C   UNL d   1       8.914   6.059 -10.887  0.00  0.00     0.323 C 
BRANCH  10  11
ATOM     11  N   UNL d   1       9.476   7.388 -10.949  0.00  0.00     0.344 N 
BRANCH  11  12
ATOM     12  C   UNL d   1      10.449   7.574  -9.893  0.00  0.00     0.316 C 
BRANCH  12  13
ATOM     13  C   UNL d   1       9.749   8.214  -8.684  0.00  0.00     0.164 C 
BRANCH  13  14
ATOM     14  N   UNL d   1      10.699   9.017  -7.901  0.00  0.00    -0.269 NA
BRANCH  14  15
ATOM     15  C   UNL d   1      11.089   8.623  -6.609  0.00  0.00     0.076 A 
ATOM     16  C   UNL d   1      10.750   7.344  -6.105  0.00  0.00     0.019 A 
ATOM     17  C   UNL d   1      11.139   6.965  -4.815  0.00  0.00     0.002 A 
ATOM     18  C   UNL d   1      11.872   7.844  -4.000  0.00  0.00     0.000 A 
ATOM     19  C   UNL d   1      12.228   9.110  -4.493  0.00  0.00     0.002 A 
ATOM     20  C   UNL d   1      11.844   9.508  -5.791  0.00  0.00     0.019 A 
ENDBRANCH  14  15
ENDBRANCH  13  14
ENDBRANCH  12  13
ENDBRANCH  11  12
ENDBRANCH  10  11
ENDBRANCH   6  10
BRANCH   2  21
ATOM     21  C   UNL d   1       7.590   1.423 -15.324  0.00  0.00     0.057 A 
ATOM     22  C   UNL d   1       6.595   1.014 -14.408  0.00  0.00     0.018 A 
ATOM     23  C   UNL d   1       5.512   0.245 -14.803  0.00  0.00     0.085 A 
ATOM     24  C   UNL d   1       5.441  -0.292 -16.121  0.00  0.00     0.151 A 
ATOM     25 CL   UNL d   1       4.243  -0.017 -13.662  0.00  0.00    -0.080 Cl
ATOM     26  C   UNL d   1       6.483   0.010 -17.025  0.00  0.00     0.031 A 
ATOM     27  F   UNL d   1       4.414  -1.129 -16.465  0.00  0.00    -0.203 F 
ATOM     28  C   UNL d   1       7.524   0.890 -16.655  0.00  0.00     0.007 A 
ENDBRANCH   2  21
TORSDOF 7
