REMARK  8 active torsions:
REMARK  status: ('A' for Active; 'I' for Inactive)
REMARK    1  A    between atoms: O_2  and  C_3 
REMARK    2  A    between atoms: C_10  and  C_11 
REMARK    3  A    between atoms: C_11  and  N_12 
REMARK    4  A    between atoms: N_12  and  C_13 
REMARK    5  A    between atoms: C_13  and  C_14 
REMARK    6  A    between atoms: C_14  and  C_15 
REMARK    7  A    between atoms: C_15  and  C_16 
REMARK    8  A    between atoms: C_16  and  N_17 
ROOT
ATOM      1  C   UNL d   1       9.022   4.840 -10.257  0.00  0.00     0.290 C 
ENDROOT
BRANCH   1   2
ATOM      2  N   UNL d   1       9.229   6.007  -9.432  0.00  0.00     0.339 N 
BRANCH   2   3
ATOM      3  C   UNL d   1      10.005   5.688  -8.247  0.00  0.00     0.293 C 
BRANCH   3   4
ATOM      4  C   UNL d   1       9.930   6.799  -7.189  0.00  0.00     0.071 C 
ATOM      5  C   UNL d   1      10.974   6.551  -6.079  0.00  0.00     0.035 C 
ATOM      6  C   UNL d   1      11.197   7.762  -5.209  0.00  0.00     0.022 A 
ATOM      7  C   UNL d   1      11.834   7.626  -3.951  0.00  0.00     0.092 A 
ATOM      8  C   UNL d   1      10.696   9.011  -5.644  0.00  0.00     0.092 A 
ATOM      9  C   UNL d   1      11.972   8.776  -3.138  0.00  0.00     0.024 A 
ATOM     10  C   UNL d   1      11.459   9.989  -3.572  0.00  0.00     0.004 A 
ATOM     11  C   UNL d   1      10.835  10.130  -4.808  0.00  0.00     0.024 A 
ATOM     12  O   UNL d   1      10.024   9.189  -6.817  0.00  0.00    -0.331 OA
ATOM     13  C   UNL d   1      10.186   8.188  -7.793  0.00  0.00     0.151 C 
BRANCH   7  14
ATOM     14  O   UNL d   1      12.265   6.390  -3.540  0.00  0.00    -0.328 OA
ATOM     15  C   UNL d   1      12.371   6.181  -2.133  0.00  0.00     0.181 C 
ENDBRANCH   7  14
ENDBRANCH   3   4
ENDBRANCH   2   3
ENDBRANCH   1   2
BRANCH   1  16
ATOM     16  C   UNL d   1       8.915   5.298 -11.714  0.00  0.00     0.040 C 
BRANCH  16  17
ATOM     17  C   UNL d   1       8.522   4.136 -12.628  0.00  0.00     0.027 C 
BRANCH  17  18
ATOM     18  C   UNL d   1       8.856   4.387 -14.109  0.00  0.00     0.112 C 
BRANCH  18  19
ATOM     19  N   UNL d   1       9.258   3.133 -14.781  0.00  0.00    -0.271 N 
ATOM     20  C   UNL d   1      10.575   2.916 -15.021  0.00  0.00     0.239 C 
ATOM     21  C   UNL d   1      11.020   1.619 -15.708  0.00  0.00     0.089 C 
ATOM     22  O   UNL d   1      11.476   3.702 -14.705  0.00  0.00    -0.272 OA
ATOM     23  C   UNL d   1       9.938   0.994 -16.585  0.00  0.00     0.018 C 
ATOM     24  C   UNL d   1       8.630   0.898 -15.781  0.00  0.00     0.089 C 
ATOM     25  C   UNL d   1      10.409  -0.383 -17.061  0.00  0.00     0.001 C 
ATOM     26  C   UNL d   1       9.717   1.740 -17.922  0.00  0.00     0.001 C 
ATOM     27  C   UNL d   1       8.275   2.217 -15.092  0.00  0.00     0.239 C 
ATOM     28  O   UNL d   1       7.082   2.391 -14.836  0.00  0.00    -0.272 OA
ATOM     29  C   UNL d   1       9.669  -0.669 -18.360  0.00  0.00     0.000 C 
ATOM     30  C   UNL d   1       9.400   0.705 -18.992  0.00  0.00     0.000 C 
ENDBRANCH  18  19
ENDBRANCH  17  18
ENDBRANCH  16  17
ENDBRANCH   1  16
TORSDOF 8
