REMARK  4 active torsions:
REMARK  status: ('A' for Active; 'I' for Inactive)
REMARK    1  A    between atoms: C_4  and  O_5 
REMARK    2  A    between atoms: O_5  and  C_6 
REMARK    3  A    between atoms: C_6  and  C_8 
REMARK    4  A    between atoms: C_8  and  C_10 
ROOT
ATOM      1  O   UNL d   1       9.300   6.747 -10.857  0.00  0.00    -0.302 OA
ENDROOT
BRANCH   1   2
ATOM      2  C   UNL d   1       8.675   5.628 -11.466  0.00  0.00     0.124 C 
ATOM      3  C   UNL d   1       9.638   5.176 -12.554  0.00  0.00     0.030 C 
ATOM      4  C   UNL d   1       9.144   3.906 -13.235  0.00  0.00     0.002 C 
ATOM      5  C   UNL d   1      10.092   3.506 -14.369  0.00  0.00     0.000 C 
ATOM      6  C   UNL d   1       7.707   4.153 -13.745  0.00  0.00     0.000 C 
ATOM      7  C   UNL d   1       6.671   4.641 -12.704  0.00  0.00     0.002 C 
ATOM      8  C   UNL d   1       7.244   5.909 -12.007  0.00  0.00     0.030 C 
ATOM      9  C   UNL d   1       6.391   3.580 -11.647  0.00  0.00     0.000 C 
ATOM     10  C   UNL d   1       5.328   4.780 -13.339  0.00  0.00     0.000 C 
ENDBRANCH   1   2
BRANCH   1  11
ATOM     11  C   UNL d   1       9.495   6.781  -9.528  0.00  0.00     0.307 C 
ATOM     12  O   UNL d   1       9.100   5.923  -8.735  0.00  0.00    -0.261 OA
BRANCH  11  13
ATOM     13  C   UNL d   1      10.250   8.041  -9.067  0.00  0.00     0.260 C 
ATOM     14  O   UNL d   1       9.466   9.164  -9.454  0.00  0.00    -0.208 OA
BRANCH  13  15
ATOM     15  C   UNL d   1      10.684   8.023  -7.576  0.00  0.00     0.018 C 
ATOM     16  C   UNL d   1      11.205   6.853  -6.999  0.00  0.00    -0.001 C 
ATOM     17  C   UNL d   1      11.490   6.820  -5.588  0.00  0.00    -0.000 C 
ATOM     18  C   UNL d   1      11.460   7.988  -4.836  0.00  0.00    -0.000 C 
ATOM     19  C   UNL d   1      11.044   9.196  -5.431  0.00  0.00    -0.000 C 
ATOM     20  C   UNL d   1      10.655   9.202  -6.792  0.00  0.00    -0.001 C 
ENDBRANCH  13  15
ENDBRANCH  11  13
ENDBRANCH   1  11
TORSDOF 4
