REMARK  6 active torsions:
REMARK  status: ('A' for Active; 'I' for Inactive)
REMARK    1  A    between atoms: C_2  and  C_3 
REMARK    2  A    between atoms: C_3  and  N_4 
REMARK    3  A    between atoms: N_4  and  C_5 
REMARK    4  A    between atoms: N_4  and  C_11 
REMARK    5  A    between atoms: C_5  and  C_6 
REMARK    6  A    between atoms: C_19  and  O_20 
ROOT
ATOM      1  C   UNL d   1       7.046   4.344 -12.843  0.00  0.00     0.224 C 
ATOM      2  C   UNL d   1       6.067   3.638 -11.870  0.00  0.00     0.038 C 
ATOM      3  C   UNL d   1       5.142   2.693 -12.625  0.00  0.00     0.030 C 
ATOM      4  C   UNL d   1       5.851   1.817 -13.654  0.00  0.00    -0.004 A 
ATOM      5  C   UNL d   1       7.141   2.184 -14.167  0.00  0.00    -0.022 A 
ATOM      6  C   UNL d   1       7.761   1.397 -15.157  0.00  0.00    -0.004 A 
ATOM      7  C   UNL d   1       7.116   0.250 -15.640  0.00  0.00     0.002 A 
ATOM      8  C   UNL d   1       5.870  -0.121 -15.144  0.00  0.00     0.024 A 
ATOM      9  C   UNL d   1       5.217   0.651 -14.166  0.00  0.00     0.090 A 
ATOM     10  C   UNL d   1       7.924   3.355 -13.638  0.00  0.00     0.059 C 
ENDROOT
BRANCH   1  11
ATOM     11  N   UNL d   1       7.888   5.347 -12.184  0.00  0.00     0.140 N 
BRANCH  11  12
ATOM     12  C   UNL d   1       7.085   6.497 -11.778  0.00  0.00     0.251 C 
BRANCH  12  13
ATOM     13  C   UNL d   1       6.216   7.190 -12.837  0.00  0.00     0.035 C 
ATOM     14  C   UNL d   1       5.364   8.366 -12.321  0.00  0.00     0.002 C 
ENDBRANCH  12  13
ENDBRANCH  11  12
BRANCH  11  15
ATOM     15  C   UNL d   1       8.646   4.811 -11.027  0.00  0.00     0.283 C 
BRANCH  15  16
ATOM     16  C   UNL d   1       9.398   5.776 -10.171  0.00  0.00     0.041 A 
ATOM     17  S   UNL d   1       9.442   5.528  -8.450  0.00  0.00    -0.089 SA
ATOM     18  C   UNL d   1      10.380   6.971  -8.199  0.00  0.00     0.035 A 
ATOM     19  C   UNL d   1      10.601   7.619  -9.393  0.00  0.00     0.007 A 
ATOM     20  C   UNL d   1      10.069   6.922 -10.505  0.00  0.00     0.005 A 
ENDBRANCH  15  16
ENDBRANCH  11  15
ENDBRANCH   1  11
BRANCH   9  21
ATOM     21  O   UNL d   1       3.937   0.381 -13.710  0.00  0.00    -0.328 OA
ATOM     22  C   UNL d   1       3.219  -0.671 -14.310  0.00  0.00     0.181 C 
ENDBRANCH   9  21
TORSDOF 6
