REMARK  1 active torsions:
REMARK  status: ('A' for Active; 'I' for Inactive)
REMARK    1  A    between atoms: C_6  and  N_7 
ROOT
ATOM      1  O   UNL d   1       8.238   4.896  -8.800  0.00  0.00    -0.267 OA
ATOM      2  C   UNL d   1       8.700   5.904  -8.290  0.00  0.00     0.287 C 
ATOM      3  C   UNL d   1       8.344   6.416  -6.878  0.00  0.00     0.238 C 
ATOM      4  O   UNL d   1       9.480   6.762  -6.070  0.00  0.00    -0.318 OA
ATOM      5  C   UNL d   1      10.459   7.458  -6.750  0.00  0.00     0.125 C 
ATOM      6  C   UNL d   1      11.358   8.313  -6.113  0.00  0.00     0.061 C 
ATOM      7  C   UNL d   1      12.300   9.049  -6.849  0.00  0.00     0.015 C 
ATOM      8  C   UNL d   1      12.483   8.773  -8.204  0.00  0.00     0.030 C 
ATOM      9  C   UNL d   1      11.527   8.023  -8.867  0.00  0.00     0.151 C 
ATOM     10  O   UNL d   1      11.549   8.018 -10.214  0.00  0.00    -0.189 OA
ATOM     11  C   UNL d   1      10.558   7.335  -8.139  0.00  0.00     0.133 C 
ATOM     12  N   UNL d   1       9.717   6.501  -8.866  0.00  0.00    -0.205 NA
ENDROOT
BRANCH   6  13
ATOM     13  N   UNL d   1      11.380   8.347  -4.626  0.00  0.00    -0.247 NA
ATOM     14  C   UNL d   1      12.001   7.178  -3.967  0.00  0.00     0.115 C 
ATOM     15  C   UNL d   1      11.861   7.296  -2.437  0.00  0.00     0.308 C 
ATOM     16  N   UNL d   1      12.462   8.541  -1.987  0.00  0.00     0.342 N 
ATOM     17  C   UNL d   1      11.834   9.655  -2.668  0.00  0.00     0.308 C 
ATOM     18  C   UNL d   1      11.980   9.588  -4.137  0.00  0.00     0.115 C 
ENDBRANCH   6  13
TORSDOF 1
