REMARK  2 active torsions:
REMARK  status: ('A' for Active; 'I' for Inactive)
REMARK    1  A    between atoms: C_6  and  C_7 
REMARK    2  A    between atoms: C_7  and  N_8 
ROOT
ATOM      1  N   UNL d   1       9.942   6.790  -7.869  0.00  0.00     0.148 N 
ATOM      2  C   UNL d   1       9.831   8.167  -8.349  0.00  0.00     0.256 C 
ATOM      3  C   UNL d   1      11.130   8.917  -8.010  0.00  0.00     0.061 C 
ATOM      4  C   UNL d   1      11.525   8.761  -6.551  0.00  0.00    -0.022 A 
ATOM      5  C   UNL d   1      12.465   9.613  -5.967  0.00  0.00    -0.004 A 
ATOM      6  C   UNL d   1      12.905   9.401  -4.649  0.00  0.00    -0.000 A 
ATOM      7  C   UNL d   1      12.385   8.350  -3.881  0.00  0.00    -0.000 A 
ATOM      8  C   UNL d   1      11.453   7.483  -4.463  0.00  0.00    -0.003 A 
ATOM      9  C   UNL d   1      10.999   7.707  -5.789  0.00  0.00     0.007 A 
ATOM     10  C   UNL d   1       9.927   6.846  -6.409  0.00  0.00     0.277 C 
ENDROOT
BRANCH   1  11
ATOM     11  C   UNL d   1       8.802   5.999  -8.314  0.00  0.00     0.296 C 
BRANCH  11  12
ATOM     12  C   UNL d   1       8.903   5.548  -9.735  0.00  0.00     0.094 A 
ATOM     13  N   UNL d   1       8.393   6.269 -10.797  0.00  0.00    -0.229 NA
ATOM     14  C   UNL d   1       8.608   5.611 -11.990  0.00  0.00     0.162 A 
ATOM     15  N   UNL d   1       8.249   6.005 -13.239  0.00  0.00    -0.225 NA
ATOM     16  C   UNL d   1       9.324   4.435 -11.653  0.00  0.00     0.037 A 
ATOM     17  C   UNL d   1       8.654   5.180 -14.234  0.00  0.00     0.101 A 
ATOM     18  C   UNL d   1       9.373   3.989 -14.052  0.00  0.00     0.021 A 
ATOM     19  C   UNL d   1       9.707   3.620 -12.742  0.00  0.00     0.005 A 
ATOM     20  C   UNL d   1       9.459   4.402 -10.220  0.00  0.00     0.020 A 
ENDBRANCH  11  12
ENDBRANCH   1  11
TORSDOF 2
