REMARK  6 active torsions:
REMARK  status: ('A' for Active; 'I' for Inactive)
REMARK       I    between atoms: C_2  and  N_3 
REMARK       I    between atoms: C_2  and  N_10 
REMARK    1  A    between atoms: N_3  and  C_4 
REMARK    2  A    between atoms: N_10  and  C_11 
REMARK    3  A    between atoms: C_14  and  C_15 
REMARK    4  A    between atoms: C_15  and  C_16 
REMARK    5  A    between atoms: C_16  and  N_17 
REMARK    6  A    between atoms: N_20  and  C_21 
ROOT
ATOM      1  C   UNL d   1       8.019   3.264 -14.083  0.00  0.00     0.086 A 
ATOM      2  C   UNL d   1       9.203   4.029 -14.042  0.00  0.00     0.019 A 
ATOM      3  C   UNL d   1       9.349   5.077 -13.118  0.00  0.00    -0.003 A 
ATOM      4  C   UNL d   1       8.319   5.370 -12.207  0.00  0.00    -0.020 A 
ATOM      5  C   UNL d   1       7.113   4.642 -12.265  0.00  0.00    -0.003 A 
ATOM      6  C   UNL d   1       6.955   3.605 -13.204  0.00  0.00     0.019 A 
ENDROOT
BRANCH   4   7
ATOM      7  C   UNL d   1       8.486   6.457 -11.168  0.00  0.00     0.062 C 
BRANCH   7   8
ATOM      8  C   UNL d   1       9.817   6.413 -10.386  0.00  0.00     0.255 C 
BRANCH   8   9
ATOM      9  N   UNL d   1       9.861   7.421  -9.325  0.00  0.00     0.141 N 
ATOM     10  C   UNL d   1      11.250   7.728  -8.964  0.00  0.00     0.274 C 
ATOM     11  C   UNL d   1      11.326   8.799  -7.856  0.00  0.00     0.137 C 
ATOM     12  N   UNL d   1      10.535   8.386  -6.708  0.00  0.00    -0.344 N 
ATOM     13  C   UNL d   1       9.178   7.946  -6.995  0.00  0.00     0.137 C 
ATOM     14  C   UNL d   1       9.175   6.905  -8.133  0.00  0.00     0.274 C 
BRANCH  12  15
ATOM     15  C   UNL d   1      11.096   8.286  -5.435  0.00  0.00     0.056 A 
ATOM     16  C   UNL d   1      11.306   7.029  -4.826  0.00  0.00     0.017 A 
ATOM     17  C   UNL d   1      11.864   6.949  -3.531  0.00  0.00     0.002 A 
ATOM     18  C   UNL d   1      12.206   8.122  -2.834  0.00  0.00     0.000 A 
ATOM     19  C   UNL d   1      11.992   9.374  -3.433  0.00  0.00     0.002 A 
ATOM     20  C   UNL d   1      11.455   9.458  -4.733  0.00  0.00     0.017 A 
ENDBRANCH  12  15
ENDBRANCH   8   9
ENDBRANCH   7   8
ENDBRANCH   4   7
BRANCH   1  21
ATOM     21  N   UNL d   1       7.968   2.226 -15.058  0.00  0.00    -0.191 NA
ATOM     22  C   UNL d   1       6.966   1.364 -15.304  0.00  0.00     0.369 C 
ATOM     23  O   UNL d   1       6.051   1.129 -14.515  0.00  0.00    -0.242 OA
ATOM     24  N   UNL d   1       7.074   0.800 -16.522  0.00  0.00    -0.191 NA
BRANCH  24  25
ATOM     25  C   UNL d   1       6.103  -0.031 -17.151  0.00  0.00     0.086 A 
ATOM     26  C   UNL d   1       5.966   0.011 -18.560  0.00  0.00     0.019 A 
ATOM     27  C   UNL d   1       5.030  -0.827 -19.210  0.00  0.00     0.002 A 
ATOM     28  C   UNL d   1       4.229  -1.706 -18.461  0.00  0.00     0.000 A 
ATOM     29  C   UNL d   1       4.360  -1.742 -17.061  0.00  0.00     0.002 A 
ATOM     30  C   UNL d   1       5.302  -0.928 -16.413  0.00  0.00     0.019 A 
ENDBRANCH  24  25
ENDBRANCH   1  21
TORSDOF 6
