REMARK  7 active torsions:
REMARK  status: ('A' for Active; 'I' for Inactive)
REMARK    1  A    between atoms: C_8  and  O_9 
REMARK    2  A    between atoms: O_9  and  C_10 
REMARK    3  A    between atoms: C_10  and  C_11 
REMARK    4  A    between atoms: C_11  and  C_12 
REMARK    5  A    between atoms: C_12  and  C_13 
REMARK    6  A    between atoms: C_13  and  N_14 
REMARK    7  A    between atoms: N_17  and  C_18 
ROOT
ATOM      1  N   UNL d   1       9.890   6.210  -9.293  0.00  0.00     0.141 N 
ATOM      2  C   UNL d   1      10.389   7.590  -9.361  0.00  0.00     0.274 C 
ATOM      3  C   UNL d   1      11.484   7.846  -8.308  0.00  0.00     0.137 C 
ATOM      4  N   UNL d   1      10.989   7.481  -6.997  0.00  0.00    -0.344 N 
ATOM      5  C   UNL d   1      10.367   6.186  -6.897  0.00  0.00     0.137 C 
ATOM      6  C   UNL d   1       9.294   5.993  -7.972  0.00  0.00     0.274 C 
ENDROOT
BRANCH   1   7
ATOM      7  C   UNL d   1       8.879   6.008 -10.325  0.00  0.00     0.251 C 
BRANCH   7   8
ATOM      8  C   UNL d   1       9.417   5.093 -11.426  0.00  0.00     0.038 C 
BRANCH   8   9
ATOM      9  C   UNL d   1       8.338   4.781 -12.470  0.00  0.00     0.035 C 
BRANCH   9  10
ATOM     10  C   UNL d   1       8.823   3.816 -13.550  0.00  0.00     0.151 C 
BRANCH  10  11
ATOM     11  O   UNL d   1       9.910   4.418 -14.247  0.00  0.00    -0.315 OA
BRANCH  11  12
ATOM     12  C   UNL d   1      10.529   3.683 -15.241  0.00  0.00     0.179 A 
ATOM     13  C   UNL d   1      11.636   4.230 -15.909  0.00  0.00     0.044 A 
ATOM     14  C   UNL d   1      12.254   3.470 -16.927  0.00  0.00     0.002 A 
ATOM     15  C   UNL d   1      11.730   2.197 -17.234  0.00  0.00     0.014 A 
ATOM     16  C   UNL d   1      12.317   1.358 -18.363  0.00  0.00     0.039 C 
ATOM     17  C   UNL d   1      10.604   1.729 -16.515  0.00  0.00     0.163 A 
ATOM     18  C   UNL d   1      11.948  -0.134 -18.282  0.00  0.00     0.095 C 
ATOM     19  C   UNL d   1      10.559  -0.408 -17.701  0.00  0.00     0.257 C 
ATOM     20  O   UNL d   1       9.978  -1.448 -17.986  0.00  0.00    -0.270 OA
ATOM     21  N   UNL d   1      10.034   0.482 -16.852  0.00  0.00    -0.193 NA
ATOM     22  N   UNL d   1      10.029   2.461 -15.541  0.00  0.00    -0.204 NA
ENDBRANCH  11  12
ENDBRANCH  10  11
ENDBRANCH   9  10
ENDBRANCH   8   9
ENDBRANCH   7   8
ENDBRANCH   1   7
BRANCH   4  23
ATOM     23  C   UNL d   1      11.102   8.319  -5.878  0.00  0.00     0.056 A 
ATOM     24  C   UNL d   1      11.595   7.896  -4.612  0.00  0.00     0.018 A 
ATOM     25  C   UNL d   1      11.675   8.793  -3.522  0.00  0.00     0.029 A 
ATOM     26  C   UNL d   1      12.061   6.600  -4.386  0.00  0.00     0.002 A 
ATOM     27  C   UNL d   1      11.195  10.075  -3.682  0.00  0.00     0.002 A 
ATOM     28  C   UNL d   1      12.203   8.432  -2.272  0.00  0.00     0.140 A 
ATOM     29  C   UNL d   1      10.685  10.493  -4.912  0.00  0.00     0.002 A 
ATOM     30  C   UNL d   1      10.669   9.642  -6.028  0.00  0.00     0.017 A 
ATOM     31  F   UNL d   1      12.273   9.312  -1.254  0.00  0.00    -0.204 F 
ATOM     32  C   UNL d   1      12.625   7.120  -2.065  0.00  0.00     0.030 A 
ATOM     33  C   UNL d   1      12.553   6.232  -3.127  0.00  0.00     0.002 A 
ENDBRANCH   4  23
TORSDOF 7
