REMARK  8 active torsions:
REMARK  status: ('A' for Active; 'I' for Inactive)
REMARK    1  A    between atoms: C_2  and  C_3 
REMARK    2  A    between atoms: C_2  and  N_11 
REMARK    3  A    between atoms: C_3  and  C_4 
REMARK    4  A    between atoms: C_4  and  C_5 
REMARK    5  A    between atoms: N_11  and  C_12 
REMARK    6  A    between atoms: C_12  and  C_13 
REMARK    7  A    between atoms: C_13  and  C_15 
REMARK    8  A    between atoms: C_20  and  C_21 
ROOT
ATOM      1  C   UNL d   1       9.145   6.137  -9.944  0.00  0.00     0.327 C 
ENDROOT
BRANCH   1   2
ATOM      2  N   UNL d   1       9.082   5.739 -11.342  0.00  0.00     0.340 N 
BRANCH   2   3
ATOM      3  C   UNL d   1       8.002   4.803 -11.661  0.00  0.00     0.257 C 
ATOM      4  C   UNL d   1       6.677   5.575 -11.752  0.00  0.00     0.038 C 
BRANCH   3   5
ATOM      5  C   UNL d   1       8.325   4.044 -12.961  0.00  0.00     0.041 C 
BRANCH   5   6
ATOM      6  C   UNL d   1       7.109   3.348 -13.603  0.00  0.00     0.028 C 
BRANCH   6   7
ATOM      7  C   UNL d   1       7.469   2.269 -14.602  0.00  0.00    -0.022 A 
ATOM      8  C   UNL d   1       6.722   1.074 -14.633  0.00  0.00    -0.004 A 
ATOM      9  C   UNL d   1       7.049   0.070 -15.561  0.00  0.00    -0.000 A 
ATOM     10  C   UNL d   1       8.115   0.260 -16.464  0.00  0.00    -0.000 A 
ATOM     11  C   UNL d   1       8.856   1.456 -16.441  0.00  0.00    -0.000 A 
ATOM     12  C   UNL d   1       8.528   2.459 -15.514  0.00  0.00    -0.004 A 
ENDBRANCH   6   7
ENDBRANCH   5   6
ENDBRANCH   3   5
ENDBRANCH   2   3
ENDBRANCH   1   2
BRANCH   1  13
ATOM     13  C   UNL d   1      10.118   7.325  -9.721  0.00  0.00     0.210 C 
ATOM     14  O   UNL d   1       9.461   8.470 -10.240  0.00  0.00    -0.216 OA
BRANCH  13  15
ATOM     15  C   UNL d   1      10.540   7.494  -8.261  0.00  0.00     0.010 A 
ATOM     16  C   UNL d   1      10.640   8.766  -7.656  0.00  0.00     0.005 A 
ATOM     17  C   UNL d   1      11.071   8.893  -6.318  0.00  0.00     0.085 A 
ATOM     18  C   UNL d   1      11.405   7.765  -5.546  0.00  0.00     0.136 A 
ATOM     19  C   UNL d   1      11.311   6.508  -6.153  0.00  0.00     0.027 A 
ATOM     20  O   UNL d   1      11.837   7.821  -4.248  0.00  0.00    -0.190 OA
ATOM     21  C   UNL d   1      10.891   6.379  -7.482  0.00  0.00     0.000 A 
BRANCH  17  22
ATOM     22  C   UNL d   1      11.178  10.250  -5.716  0.00  0.00     0.299 C 
ATOM     23  N   UNL d   1      11.855  11.136  -6.430  0.00  0.00    -0.102 N 
ATOM     24  O   UNL d   1      10.663  10.490  -4.627  0.00  0.00    -0.264 OA
ENDBRANCH  17  22
ENDBRANCH  13  15
ENDBRANCH   1  13
TORSDOF 8
