REMARK  4 active torsions:
REMARK  status: ('A' for Active; 'I' for Inactive)
REMARK    1  A    between atoms: C_3  and  N_4 
REMARK    2  A    between atoms: C_11  and  C_12 
REMARK    3  A    between atoms: C_12  and  N_13 
REMARK    4  A    between atoms: N_16  and  C_17 
ROOT
ATOM      1  C   UNL d   1       9.627   2.026 -15.832  0.00  0.00     0.153 C 
ATOM      2  N   UNL d   1       9.350   3.105 -14.861  0.00  0.00    -0.125 N 
ATOM      3  C   UNL d   1      10.317   4.165 -14.669  0.00  0.00     0.711 A 
ATOM      4  N   UNL d   1      10.140   5.145 -13.808  0.00  0.00    -0.061 NA
ATOM      5  C   UNL d   1       8.945   5.160 -13.080  0.00  0.00     0.121 A 
ATOM      6  C   UNL d   1       8.478   6.104 -12.117  0.00  0.00     0.050 A 
ATOM      7  C   UNL d   1       7.250   5.626 -11.708  0.00  0.00     0.098 A 
ATOM      8  N   UNL d   1       6.972   4.454 -12.395  0.00  0.00    -0.238 NA
ATOM      9  C   UNL d   1       8.020   4.190 -13.237  0.00  0.00     0.156 A 
ATOM     10  C   UNL d   1       8.177   3.077 -14.163  0.00  0.00     0.294 A 
ATOM     11  O   UNL d   1       7.292   2.223 -14.273  0.00  0.00    -0.265 OA
ENDROOT
BRANCH   6  12
ATOM     12  C   UNL d   1       9.182   7.353 -11.628  0.00  0.00     0.280 C 
BRANCH  12  13
ATOM     13  N   UNL d   1      10.110   7.125 -10.521  0.00  0.00     0.146 N 
ATOM     14  C   UNL d   1      10.792   8.392 -10.213  0.00  0.00     0.275 C 
ATOM     15  C   UNL d   1      11.827   8.183  -9.093  0.00  0.00     0.138 C 
ATOM     16  N   UNL d   1      11.192   7.570  -7.935  0.00  0.00    -0.330 N 
ATOM     17  C   UNL d   1      10.393   6.385  -8.190  0.00  0.00     0.138 C 
ATOM     18  C   UNL d   1       9.397   6.663  -9.324  0.00  0.00     0.275 C 
BRANCH  16  19
ATOM     19  C   UNL d   1      11.290   8.107  -6.641  0.00  0.00     0.140 A 
ATOM     20  N   UNL d   1      11.355   9.448  -6.534  0.00  0.00    -0.227 NA
ATOM     21  C   UNL d   1      11.445   9.986  -5.299  0.00  0.00     0.101 A 
ATOM     22  C   UNL d   1      11.510   9.219  -4.124  0.00  0.00     0.021 A 
ATOM     23  C   UNL d   1      11.466   7.818  -4.240  0.00  0.00     0.005 A 
ATOM     24  C   UNL d   1      11.338   7.252  -5.524  0.00  0.00     0.037 A 
ENDBRANCH  16  19
ENDBRANCH  12  13
ENDBRANCH   6  12
BRANCH   3  25
ATOM     25  N   UNL d   1      11.474   4.103 -15.457  0.00  0.00    -0.184 N 
ATOM     26  C   UNL d   1      12.779   4.519 -14.920  0.00  0.00     0.120 C 
ATOM     27  C   UNL d   1      13.535   5.200 -16.059  0.00  0.00     0.027 C 
ATOM     28  C   UNL d   1      12.920   4.575 -17.307  0.00  0.00     0.027 C 
ATOM     29  C   UNL d   1      11.470   4.293 -16.906  0.00  0.00     0.120 C 
ENDBRANCH   3  25
TORSDOF 4
