REMARK  8 active torsions:
REMARK  status: ('A' for Active; 'I' for Inactive)
REMARK    1  A    between atoms: O_2  and  C_3 
REMARK    2  A    between atoms: C_3  and  C_4 
REMARK    3  A    between atoms: C_4  and  C_5 
REMARK       I    between atoms: C_5  and  N_7 
REMARK    4  A    between atoms: N_7  and  C_8 
REMARK    5  A    between atoms: C_11  and  C_12 
REMARK    6  A    between atoms: C_12  and  C_13 
REMARK    7  A    between atoms: C_13  and  N_14 
REMARK    8  A    between atoms: C_17  and  C_18 
ROOT
ATOM      1  N   UNL d   1       9.100   5.002 -12.714  0.00  0.00     0.137 N 
ATOM      2  C   UNL d   1       7.833   4.340 -12.446  0.00  0.00     0.251 C 
ATOM      3  C   UNL d   1       7.336   3.611 -13.703  0.00  0.00     0.040 C 
ATOM      4  C   UNL d   1       8.394   2.651 -14.291  0.00  0.00     0.026 C 
ATOM      5  C   UNL d   1       9.750   3.370 -14.364  0.00  0.00     0.040 C 
ATOM      6  C   UNL d   1      10.116   3.998 -13.012  0.00  0.00     0.251 C 
ENDROOT
BRANCH   1   7
ATOM      7  C   UNL d   1       9.535   5.706 -11.517  0.00  0.00     0.250 C 
BRANCH   7   8
ATOM      8  C   UNL d   1       9.045   7.143 -11.463  0.00  0.00     0.035 C 
BRANCH   8   9
ATOM      9  C   UNL d   1       9.569   7.870 -10.187  0.00  0.00     0.002 C 
ATOM     10  C   UNL d   1       9.291   7.063  -8.895  0.00  0.00     0.002 C 
ATOM     11  C   UNL d   1       9.701   7.850  -7.650  0.00  0.00     0.024 C 
ATOM     12  C   UNL d   1      11.216   8.141  -7.723  0.00  0.00     0.106 C 
ATOM     13  C   UNL d   1      11.554   8.930  -8.996  0.00  0.00     0.024 C 
ATOM     14  C   UNL d   1      11.075   8.190 -10.267  0.00  0.00     0.002 C 
BRANCH  12  15
ATOM     15  N   UNL d   1      11.656   8.863  -6.548  0.00  0.00    -0.240 NA
ATOM     16  C   UNL d   1      11.562   8.422  -5.289  0.00  0.00     0.254 C 
ATOM     17  O   UNL d   1      11.042   7.340  -5.001  0.00  0.00    -0.271 OA
BRANCH  16  18
ATOM     18  C   UNL d   1      12.195   9.303  -4.216  0.00  0.00     0.122 C 
BRANCH  18  19
ATOM     19  C   UNL d   1      12.181   8.662  -2.823  0.00  0.00     0.152 C 
BRANCH  19  20
ATOM     20  O   UNL d   1      12.881   7.428  -2.879  0.00  0.00    -0.351 OA
ATOM     21  C   UNL d   1      12.638   6.633  -1.736  0.00  0.00     0.174 C 
ENDBRANCH  19  20
ENDBRANCH  18  19
ENDBRANCH  16  18
ENDBRANCH  12  15
ENDBRANCH   8   9
ENDBRANCH   7   8
ENDBRANCH   1   7
BRANCH   4  22
ATOM     22  C   UNL d   1       7.947   2.028 -15.634  0.00  0.00    -0.020 A 
ATOM     23  C   UNL d   1       6.877   1.089 -15.630  0.00  0.00     0.023 A 
ATOM     24  C   UNL d   1       6.478   0.575 -16.898  0.00  0.00     0.127 A 
ATOM     25  C   UNL d   1       5.999   0.470 -14.664  0.00  0.00     0.029 A 
ATOM     26  C   UNL d   1       7.096   0.947 -18.107  0.00  0.00     0.163 A 
ATOM     27  O   UNL d   1       5.416  -0.294 -16.723  0.00  0.00    -0.303 OA
ATOM     28  C   UNL d   1       8.168   1.846 -18.066  0.00  0.00     0.031 A 
ATOM     29  F   UNL d   1       6.653   0.456 -19.294  0.00  0.00    -0.202 F 
ATOM     30  C   UNL d   1       8.604   2.386 -16.825  0.00  0.00    -0.002 A 
ATOM     31  C   UNL d   1       5.158  -0.350 -15.380  0.00  0.00     0.123 A 
ENDBRANCH   4  22
TORSDOF 8
