REMARK  6 active torsions:
REMARK  status: ('A' for Active; 'I' for Inactive)
REMARK    1  A    between atoms: C_2  and  C_3 
REMARK    2  A    between atoms: C_2  and  O_13 
REMARK    3  A    between atoms: C_4  and  C_5 
REMARK    4  A    between atoms: O_13  and  C_14 
REMARK    5  A    between atoms: C_14  and  C_15 
REMARK    6  A    between atoms: C_15  and  C_16 
ROOT
ATOM      1  O   UNL d   1       9.526   5.172  -9.262  0.00  0.00    -0.259 OA
ATOM      2  C   UNL d   1       9.731   6.391  -9.318  0.00  0.00     0.296 C 
ENDROOT
BRANCH   2   3
ATOM      3  C   UNL d   1      10.139   7.218  -8.191  0.00  0.00     0.068 C 
ATOM      4  C   UNL d   1      10.594   6.679  -7.044  0.00  0.00     0.005 C 
BRANCH   4   5
ATOM      5  C   UNL d   1      11.037   7.459  -5.880  0.00  0.00     0.002 A 
ATOM      6  C   UNL d   1      11.455   6.766  -4.719  0.00  0.00     0.029 A 
ATOM      7  C   UNL d   1      11.858   7.459  -3.564  0.00  0.00     0.156 A 
ATOM      8  C   UNL d   1      11.866   8.870  -3.572  0.00  0.00     0.156 A 
ATOM      9  O   UNL d   1      12.245   6.777  -2.444  0.00  0.00    -0.188 OA
ATOM     10  C   UNL d   1      11.458   9.576  -4.723  0.00  0.00     0.029 A 
ATOM     11  O   UNL d   1      12.251   9.543  -2.456  0.00  0.00    -0.188 OA
ATOM     12  C   UNL d   1      11.049   8.875  -5.869  0.00  0.00     0.002 A 
ENDBRANCH   4   5
ENDBRANCH   2   3
BRANCH   2  13
ATOM     13  O   UNL d   1       9.613   7.148 -10.430  0.00  0.00    -0.298 OA
BRANCH  13  14
ATOM     14  C   UNL d   1       9.307   6.536 -11.661  0.00  0.00     0.157 C 
BRANCH  14  15
ATOM     15  C   UNL d   1       7.793   6.276 -11.822  0.00  0.00     0.059 C 
BRANCH  15  16
ATOM     16  C   UNL d   1       7.467   5.042 -12.649  0.00  0.00    -0.020 A 
ATOM     17  C   UNL d   1       6.219   4.412 -12.463  0.00  0.00    -0.004 A 
ATOM     18  C   UNL d   1       5.897   3.243 -13.178  0.00  0.00    -0.000 A 
ATOM     19  C   UNL d   1       6.829   2.687 -14.075  0.00  0.00    -0.000 A 
ATOM     20  C   UNL d   1       8.085   3.306 -14.252  0.00  0.00    -0.000 A 
ATOM     21  C   UNL d   1       8.394   4.492 -13.565  0.00  0.00    -0.004 A 
ENDBRANCH  15  16
ENDBRANCH  14  15
ENDBRANCH  13  14
ENDBRANCH   2  13
TORSDOF 6
