REMARK  8 active torsions:
REMARK  status: ('A' for Active; 'I' for Inactive)
REMARK    1  A    between atoms: O_2  and  C_3 
REMARK    2  A    between atoms: C_9  and  N_10 
REMARK    3  A    between atoms: N_13  and  C_14 
REMARK    4  A    between atoms: C_14  and  C_15 
REMARK    5  A    between atoms: C_15  and  C_16 
REMARK    6  A    between atoms: C_16  and  C_17 
REMARK    7  A    between atoms: C_17  and  N_18 
REMARK       I    between atoms: N_18  and  C_19 
REMARK    8  A    between atoms: C_19  and  C_21 
ROOT
ATOM      1  C   UNL d   1       6.784   2.131 -14.347  0.00  0.00     0.251 C 
ENDROOT
BRANCH   1   2
ATOM      2  N   UNL d   1       7.184   3.475 -13.928  0.00  0.00     0.141 N 
ATOM      3  C   UNL d   1       6.426   3.874 -12.726  0.00  0.00     0.274 C 
ATOM      4  C   UNL d   1       6.810   5.290 -12.264  0.00  0.00     0.137 C 
ATOM      5  N   UNL d   1       8.248   5.372 -12.089  0.00  0.00    -0.343 N 
ATOM      6  C   UNL d   1       9.056   4.936 -13.210  0.00  0.00     0.137 C 
ATOM      7  C   UNL d   1       8.631   3.521 -13.643  0.00  0.00     0.274 C 
BRANCH   5   8
ATOM      8  C   UNL d   1       8.828   5.883 -10.918  0.00  0.00     0.080 A 
ATOM      9  C   UNL d   1       9.463   7.148 -10.909  0.00  0.00     0.120 A 
ATOM     10  C   UNL d   1      10.086   7.608  -9.716  0.00  0.00     0.081 A 
ATOM     11 CL   UNL d   1      10.933   9.110  -9.630  0.00  0.00    -0.080 Cl
ATOM     12  C   UNL d   1      10.040   6.830  -8.552  0.00  0.00     0.013 A 
ATOM     13  C   UNL d   1       9.386   5.593  -8.558  0.00  0.00     0.003 A 
ATOM     14  C   UNL d   1       8.772   5.121  -9.731  0.00  0.00     0.019 A 
BRANCH   9  15
ATOM     15  O   UNL d   1       9.457   7.906 -12.052  0.00  0.00    -0.326 OA
ATOM     16  C   UNL d   1       8.513   8.953 -12.039  0.00  0.00     0.181 C 
ENDBRANCH   9  15
ENDBRANCH   5   8
ENDBRANCH   1   2
BRANCH   1  17
ATOM     17  C   UNL d   1       7.071   1.894 -15.840  0.00  0.00     0.037 C 
BRANCH  17  18
ATOM     18  C   UNL d   1       6.479   0.562 -16.337  0.00  0.00     0.029 C 
BRANCH  18  19
ATOM     19  C   UNL d   1       6.677   0.296 -17.840  0.00  0.00     0.129 C 
BRANCH  19  20
ATOM     20  N   UNL d   1       8.089   0.217 -18.198  0.00  0.00    -0.233 NA
ATOM     21  C   UNL d   1       8.805   1.207 -18.751  0.00  0.00     0.298 C 
ATOM     22  O   UNL d   1       8.334   2.320 -18.994  0.00  0.00    -0.263 OA
BRANCH  21  23
ATOM     23  C   UNL d   1      10.218   0.876 -19.043  0.00  0.00     0.157 A 
ATOM     24  O   UNL d   1      11.050   1.893 -19.450  0.00  0.00    -0.302 OA
ATOM     25  C   UNL d   1      12.295   1.343 -19.679  0.00  0.00     0.100 A 
ATOM     26  C   UNL d   1      12.249  -0.047 -19.419  0.00  0.00     0.025 A 
ATOM     27  C   UNL d   1      13.457   2.006 -20.107  0.00  0.00     0.025 A 
ATOM     28  C   UNL d   1      10.902  -0.324 -19.011  0.00  0.00     0.032 A 
ATOM     29  C   UNL d   1      13.447  -0.779 -19.615  0.00  0.00     0.002 A 
ATOM     30  C   UNL d   1      14.628  -0.132 -20.040  0.00  0.00     0.000 A 
ATOM     31  C   UNL d   1      14.636   1.258 -20.287  0.00  0.00     0.002 A 
ENDBRANCH  21  23
ENDBRANCH  19  20
ENDBRANCH  18  19
ENDBRANCH  17  18
ENDBRANCH   1  17
TORSDOF 8
