REMARK  3 active torsions:
REMARK  status: ('A' for Active; 'I' for Inactive)
REMARK    1  A    between atoms: C_4  and  C_5 
REMARK    2  A    between atoms: C_5  and  C_7 
REMARK       I    between atoms: C_7  and  N_9 
REMARK    3  A    between atoms: N_9  and  C_10 
ROOT
ATOM      1  C   UNL d   1       7.726   5.236 -12.368  0.00  0.00     0.254 C 
ATOM      2  O   UNL d   1       6.684   5.440 -11.741  0.00  0.00    -0.281 OA
ENDROOT
BRANCH   1   3
ATOM      3  C   UNL d   1       7.849   4.213 -13.412  0.00  0.00     0.062 A 
ATOM      4  C   UNL d   1       8.860   4.072 -14.336  0.00  0.00     0.079 A 
ATOM      5  N   UNL d   1       8.666   2.937 -15.098  0.00  0.00    -0.324 N 
ATOM      6  C   UNL d   1       9.542   2.504 -16.159  0.00  0.00     0.131 C 
ATOM      7  C   UNL d   1       7.525   2.295 -14.671  0.00  0.00     0.060 A 
ATOM      8  C   UNL d   1       6.976   3.099 -13.631  0.00  0.00     0.021 A 
ATOM      9  C   UNL d   1       6.925   1.091 -15.075  0.00  0.00     0.017 A 
ATOM     10  C   UNL d   1       5.831   2.610 -12.963  0.00  0.00     0.002 A 
ATOM     11  C   UNL d   1       5.269   1.367 -13.317  0.00  0.00     0.000 A 
ATOM     12  C   UNL d   1       5.779   0.635 -14.406  0.00  0.00     0.002 A 
ENDBRANCH   1   3
BRANCH   1  13
ATOM     13  C   UNL d   1       8.990   6.026 -12.004  0.00  0.00     0.314 C 
ATOM     14  O   UNL d   1       9.835   6.305 -12.841  0.00  0.00    -0.262 OA
ATOM     15  N   UNL d   1       9.105   6.349 -10.716  0.00  0.00    -0.232 NA
BRANCH  15  16
ATOM     16  C   UNL d   1      10.224   7.108 -10.154  0.00  0.00     0.140 C 
ATOM     17  C   UNL d   1      10.416   6.774  -8.665  0.00  0.00     0.029 C 
ATOM     18  C   UNL d   1      11.656   7.550  -8.160  0.00  0.00     0.037 C 
ATOM     19  C   UNL d   1       9.193   7.360  -7.910  0.00  0.00     0.037 C 
ATOM     20  C   UNL d   1      11.505   9.038  -8.458  0.00  0.00     0.250 C 
ATOM     21  N   UNL d   1      10.214   9.316  -9.053  0.00  0.00     0.139 N 
ATOM     22  C   UNL d   1      10.038   8.636 -10.337  0.00  0.00     0.274 C 
ATOM     23  C   UNL d   1       9.177   8.902  -8.105  0.00  0.00     0.250 C 
ENDBRANCH  15  16
ENDBRANCH   1  13
TORSDOF 3
