REMARK  7 active torsions:
REMARK  status: ('A' for Active; 'I' for Inactive)
REMARK    1  A    between atoms: C_8  and  O_9 
REMARK    2  A    between atoms: O_9  and  C_10 
REMARK    3  A    between atoms: C_10  and  C_11 
REMARK    4  A    between atoms: C_11  and  C_12 
REMARK    5  A    between atoms: C_12  and  C_13 
REMARK    6  A    between atoms: C_13  and  N_14 
REMARK    7  A    between atoms: N_17  and  C_18 
ROOT
ATOM      1  N   UNL d   1       7.770   5.378 -12.647  0.00  0.00     0.141 N 
ATOM      2  C   UNL d   1       7.127   4.060 -12.761  0.00  0.00     0.274 C 
ATOM      3  C   UNL d   1       7.146   3.514 -14.185  0.00  0.00     0.137 C 
ATOM      4  N   UNL d   1       8.515   3.580 -14.702  0.00  0.00    -0.344 N 
ATOM      5  C   UNL d   1       9.169   4.872 -14.604  0.00  0.00     0.137 C 
ATOM      6  C   UNL d   1       9.151   5.354 -13.154  0.00  0.00     0.274 C 
ENDROOT
BRANCH   1   7
ATOM      7  C   UNL d   1       7.777   5.844 -11.260  0.00  0.00     0.251 C 
BRANCH   7   8
ATOM      8  C   UNL d   1       8.271   4.775 -10.246  0.00  0.00     0.038 C 
BRANCH   8   9
ATOM      9  C   UNL d   1       8.765   5.332  -8.925  0.00  0.00     0.035 C 
BRANCH   9  10
ATOM     10  C   UNL d   1      10.044   6.156  -9.138  0.00  0.00     0.149 C 
BRANCH  10  11
ATOM     11  O   UNL d   1      10.823   5.994  -7.962  0.00  0.00    -0.331 OA
BRANCH  11  12
ATOM     12  C   UNL d   1      10.904   6.964  -6.994  0.00  0.00     0.094 A 
ATOM     13  C   UNL d   1      10.509   8.314  -7.194  0.00  0.00     0.024 A 
ATOM     14  C   UNL d   1      10.657   9.243  -6.150  0.00  0.00    -0.000 A 
ATOM     15  C   UNL d   1      11.196   8.810  -4.927  0.00  0.00     0.007 A 
ATOM     16  C   UNL d   1      11.469   9.585  -3.672  0.00  0.00     0.155 A 
ATOM     17  C   UNL d   1      11.595   7.507  -4.716  0.00  0.00     0.057 A 
ATOM     18  N   UNL d   1      12.044   8.562  -2.783  0.00  0.00    -0.229 NA
ATOM     19  C   UNL d   1      12.163   7.359  -3.350  0.00  0.00     0.275 A 
ATOM     20  O   UNL d   1      12.655   6.365  -2.837  0.00  0.00    -0.266 OA
ATOM     21  C   UNL d   1      11.474   6.577  -5.751  0.00  0.00     0.029 A 
ENDBRANCH  11  12
ENDBRANCH  10  11
ENDBRANCH   9  10
ENDBRANCH   8   9
ENDBRANCH   7   8
ENDBRANCH   1   7
BRANCH   4  22
ATOM     22  C   UNL d   1       9.089   2.509 -15.400  0.00  0.00     0.056 A 
ATOM     23  C   UNL d   1       9.630   2.619 -16.720  0.00  0.00     0.018 A 
ATOM     24  C   UNL d   1      10.241   1.487 -17.315  0.00  0.00     0.004 A 
ATOM     25  C   UNL d   1       9.556   3.816 -17.481  0.00  0.00     0.033 A 
ATOM     26  C   UNL d   1      10.297   0.261 -16.629  0.00  0.00     0.000 A 
ATOM     27  C   UNL d   1      10.798   1.565 -18.615  0.00  0.00     0.032 A 
ATOM     28  C   UNL d   1       9.742   0.152 -15.346  0.00  0.00     0.002 A 
ATOM     29  C   UNL d   1       9.139   1.267 -14.739  0.00  0.00     0.017 A 
ATOM     30  C   UNL d   1      10.743   2.773 -19.334  0.00  0.00     0.167 A 
ATOM     31  F   UNL d   1      11.280   2.846 -20.577  0.00  0.00    -0.202 F 
ATOM     32  C   UNL d   1      10.123   3.893 -18.768  0.00  0.00     0.168 A 
ATOM     33  F   UNL d   1      10.055   5.063 -19.449  0.00  0.00    -0.202 F 
ENDBRANCH   4  22
TORSDOF 7
