REMARK  6 active torsions:
REMARK  status: ('A' for Active; 'I' for Inactive)
REMARK    1  A    between atoms: C_7  and  C_8 
REMARK       I    between atoms: C_8  and  N_10 
REMARK    2  A    between atoms: N_10  and  C_11 
REMARK    3  A    between atoms: C_11  and  C_12 
REMARK    4  A    between atoms: N_16  and  C_17 
REMARK    5  A    between atoms: C_17  and  C_18 
REMARK    6  A    between atoms: C_18  and  C_19 
ROOT
ATOM      1  C   UNL d   1       9.410   4.798 -11.905  0.00  0.00     0.277 C 
ATOM      2  O   UNL d   1      10.232   5.452 -12.502  0.00  0.00    -0.266 OA
ATOM      3  N   UNL d   1       9.197   4.790 -10.572  0.00  0.00    -0.232 NA
ENDROOT
BRANCH   3   4
ATOM      4  C   UNL d   1       9.924   5.581  -9.572  0.00  0.00     0.162 C 
BRANCH   4   5
ATOM      5  C   UNL d   1       9.364   6.988  -9.418  0.00  0.00     0.243 C 
ATOM      6  N   UNL d   1      10.281   7.830  -8.658  0.00  0.00     0.137 N 
ATOM      7  C   UNL d   1       9.786   9.174  -8.928  0.00  0.00     0.250 C 
ATOM      8  C   UNL d   1       9.481   9.171 -10.404  0.00  0.00     0.037 C 
ATOM      9  C   UNL d   1       9.272   7.745 -10.759  0.00  0.00     0.037 C 
BRANCH   6  10
ATOM     10  C   UNL d   1      10.249   7.565  -7.226  0.00  0.00     0.255 C 
BRANCH  10  11
ATOM     11  C   UNL d   1      11.671   7.497  -6.683  0.00  0.00     0.062 C 
BRANCH  11  12
ATOM     12  C   UNL d   1      11.715   7.818  -5.196  0.00  0.00    -0.020 A 
ATOM     13  C   UNL d   1      11.786   6.792  -4.230  0.00  0.00    -0.004 A 
ATOM     14  C   UNL d   1      11.867   7.108  -2.858  0.00  0.00    -0.000 A 
ATOM     15  C   UNL d   1      11.888   8.456  -2.453  0.00  0.00    -0.000 A 
ATOM     16  C   UNL d   1      11.828   9.481  -3.415  0.00  0.00    -0.000 A 
ATOM     17  C   UNL d   1      11.743   9.166  -4.785  0.00  0.00    -0.004 A 
ENDBRANCH  11  12
ENDBRANCH  10  11
ENDBRANCH   6  10
ENDBRANCH   4   5
ENDBRANCH   3   4
BRANCH   1  18
ATOM     18  C   UNL d   1       8.498   3.967 -12.728  0.00  0.00     0.082 A 
ATOM     19  C   UNL d   1       9.037   3.182 -13.781  0.00  0.00     0.114 A 
ATOM     20  O   UNL d   1      10.397   3.231 -14.032  0.00  0.00    -0.327 OA
ATOM     21  C   UNL d   1       8.158   2.400 -14.562  0.00  0.00     0.080 A 
ATOM     22  C   UNL d   1      10.934   2.141 -14.746  0.00  0.00     0.173 C 
ATOM     23  C   UNL d   1      10.086   1.877 -15.989  0.00  0.00     0.134 C 
ATOM     24  N   UNL d   1       8.701   1.599 -15.620  0.00  0.00    -0.342 N 
ATOM     25  C   UNL d   1       7.783   0.938 -16.528  0.00  0.00     0.126 C 
ATOM     26  C   UNL d   1       6.781   2.439 -14.261  0.00  0.00     0.030 A 
ATOM     27  C   UNL d   1       6.299   3.228 -13.227  0.00  0.00     0.059 A 
ATOM     28  C   UNL d   1       7.127   4.006 -12.440  0.00  0.00     0.018 A 
ATOM     29 CL   UNL d   1       4.675   3.223 -12.832  0.00  0.00    -0.082 Cl
ENDBRANCH   1  18
TORSDOF 6
