REMARK  6 active torsions:
REMARK  status: ('A' for Active; 'I' for Inactive)
REMARK    1  A    between atoms: C_2  and  C_3 
REMARK    2  A    between atoms: C_3  and  O_4 
REMARK    3  A    between atoms: O_4  and  C_5 
REMARK    4  A    between atoms: C_10  and  N_11 
REMARK    5  A    between atoms: N_14  and  C_15 
REMARK    6  A    between atoms: C_15  and  C_16 
ROOT
ATOM      1  N   UNL d   1       7.603   4.345 -13.029  0.00  0.00    -0.344 N 
ATOM      2  C   UNL d   1       7.233   4.434 -11.635  0.00  0.00     0.119 C 
ATOM      3  C   UNL d   1       8.447   4.871 -10.822  0.00  0.00     0.101 C 
ATOM      4  N   UNL d   1       8.914   6.187 -11.297  0.00  0.00    -0.248 NA
ATOM      5  C   UNL d   1       9.400   6.006 -12.677  0.00  0.00     0.101 C 
ATOM      6  C   UNL d   1       8.241   5.515 -13.580  0.00  0.00     0.119 C 
ENDROOT
BRANCH   1   7
ATOM      7  C   UNL d   1       7.400   3.141 -13.741  0.00  0.00     0.079 A 
ATOM      8  C   UNL d   1       8.429   2.557 -14.522  0.00  0.00     0.110 A 
ATOM      9  C   UNL d   1       8.156   1.334 -15.180  0.00  0.00     0.026 A 
ATOM     10  C   UNL d   1       6.915   0.686 -15.034  0.00  0.00     0.002 A 
ATOM     11  C   UNL d   1       5.923   1.257 -14.221  0.00  0.00     0.002 A 
ATOM     12  C   UNL d   1       6.165   2.482 -13.588  0.00  0.00     0.019 A 
BRANCH   8  13
ATOM     13  O   UNL d   1       9.664   3.179 -14.559  0.00  0.00    -0.326 OA
BRANCH  13  14
ATOM     14  C   UNL d   1      10.654   2.686 -15.448  0.00  0.00     0.187 C 
BRANCH  14  15
ATOM     15  C   UNL d   1      11.960   3.432 -15.176  0.00  0.00     0.226 C 
ATOM     16  F   UNL d   1      11.841   4.729 -15.458  0.00  0.00    -0.232 F 
ENDBRANCH  14  15
ENDBRANCH  13  14
ENDBRANCH   8  13
ENDBRANCH   1   7
BRANCH   4  17
ATOM     17  C   UNL d   1       9.968   6.716 -10.442  0.00  0.00     0.050 C 
BRANCH  17  18
ATOM     18  C   UNL d   1       9.782   6.945  -8.954  0.00  0.00     0.050 A 
ATOM     19  C   UNL d   1      10.567   7.716  -8.133  0.00  0.00     0.085 A 
ATOM     20  N   UNL d   1      10.007   7.626  -6.848  0.00  0.00    -0.228 N 
ATOM     21  C   UNL d   1      11.727   8.538  -8.257  0.00  0.00     0.019 A 
ATOM     22  N   UNL d   1       8.939   6.817  -6.816  0.00  0.00    -0.164 NA
ATOM     23  C   UNL d   1      10.470   8.266  -5.760  0.00  0.00     0.101 A 
ATOM     24  C   UNL d   1       8.781   6.465  -8.049  0.00  0.00     0.123 A 
ATOM     25  C   UNL d   1      11.567   9.068  -5.882  0.00  0.00     0.021 A 
ATOM     26  C   UNL d   1      12.191   9.162  -7.139  0.00  0.00     0.003 A 
ENDBRANCH  17  18
ENDBRANCH   4  17
TORSDOF 6
