REMARK  3 active torsions:
REMARK  status: ('A' for Active; 'I' for Inactive)
REMARK    1  A    between atoms: C_2  and  C_3 
REMARK    2  A    between atoms: C_3  and  N_4 
REMARK    3  A    between atoms: C_6  and  C_7 
ROOT
ATOM      1  N   UNL d   1       6.514  -0.018 -15.628  0.00  0.00     0.136 N 
ATOM      2  C   UNL d   1       7.654  -0.218 -16.535  0.00  0.00     0.255 C 
ATOM      3  C   UNL d   1       8.187   1.084 -17.174  0.00  0.00     0.056 C 
ATOM      4  C   UNL d   1       8.517   2.126 -16.095  0.00  0.00     0.013 C 
ATOM      5  C   UNL d   1       7.321   2.297 -15.140  0.00  0.00     0.054 C 
ATOM      6  C   UNL d   1       7.551   3.315 -14.038  0.00  0.00    -0.022 A 
ATOM      7  C   UNL d   1       8.650   4.206 -14.016  0.00  0.00     0.025 A 
ATOM      8  C   UNL d   1       8.797   5.103 -12.941  0.00  0.00     0.156 A 
ATOM      9  O   UNL d   1       9.852   5.946 -12.892  0.00  0.00    -0.188 OA
ATOM     10  C   UNL d   1       7.860   5.153 -11.894  0.00  0.00     0.156 A 
ATOM     11  O   UNL d   1       8.116   5.987 -10.829  0.00  0.00    -0.188 OA
ATOM     12  C   UNL d   1       6.761   4.281 -11.936  0.00  0.00     0.025 A 
ATOM     13  C   UNL d   1       6.611   3.357 -12.983  0.00  0.00    -0.024 A 
ATOM     14  C   UNL d   1       5.472   2.359 -12.928  0.00  0.00     0.028 C 
ATOM     15  C   UNL d   1       5.873   0.937 -13.390  0.00  0.00     0.038 C 
ATOM     16  C   UNL d   1       6.903   0.912 -14.559  0.00  0.00     0.224 C 
ENDROOT
BRANCH   3  17
ATOM     17  C   UNL d   1       9.388   0.805 -18.065  0.00  0.00    -0.020 A 
ATOM     18  C   UNL d   1       9.327   1.099 -19.444  0.00  0.00    -0.002 A 
ATOM     19  C   UNL d   1      10.437   0.847 -20.273  0.00  0.00     0.027 A 
ATOM     20  C   UNL d   1      11.613   0.293 -19.732  0.00  0.00     0.131 A 
ATOM     21  C   UNL d   1      11.681  -0.002 -18.357  0.00  0.00     0.027 A 
ATOM     22  O   UNL d   1      12.677   0.041 -20.546  0.00  0.00    -0.190 OA
ATOM     23  C   UNL d   1      10.572   0.250 -17.527  0.00  0.00    -0.002 A 
ENDBRANCH   3  17
BRANCH   1  24
ATOM     24  C   UNL d   1       5.292   0.352 -16.345  0.00  0.00     0.250 C 
BRANCH  24  25
ATOM     25  C   UNL d   1       4.653  -0.836 -17.085  0.00  0.00     0.035 C 
ATOM     26  C   UNL d   1       3.576  -1.535 -16.259  0.00  0.00     0.002 C 
ENDBRANCH  24  25
ENDBRANCH   1  24
TORSDOF 3
