REMARK  6 active torsions:
REMARK  status: ('A' for Active; 'I' for Inactive)
REMARK    1  A    between atoms: C_2  and  O_3 
REMARK    2  A    between atoms: O_3  and  C_4 
REMARK    3  A    between atoms: C_7  and  C_8 
REMARK    4  A    between atoms: C_8  and  C_10 
REMARK    5  A    between atoms: C_10  and  N_11 
REMARK    6  A    between atoms: N_14  and  C_15 
ROOT
ATOM      1  N   UNL d   1       9.624   7.308  -9.680  0.00  0.00     0.144 N 
ATOM      2  C   UNL d   1       9.022   6.689  -8.487  0.00  0.00     0.274 C 
ATOM      3  C   UNL d   1       9.034   7.659  -7.294  0.00  0.00     0.137 C 
ATOM      4  N   UNL d   1      10.383   8.149  -7.060  0.00  0.00    -0.343 N 
ATOM      5  C   UNL d   1      11.083   8.685  -8.214  0.00  0.00     0.137 C 
ATOM      6  C   UNL d   1      11.012   7.683  -9.380  0.00  0.00     0.274 C 
ENDROOT
BRANCH   1   7
ATOM      7  C   UNL d   1       9.594   6.387 -10.810  0.00  0.00     0.287 C 
BRANCH   7   8
ATOM      8  C   UNL d   1       8.234   6.209 -11.503  0.00  0.00     0.208 C 
ATOM      9  O   UNL d   1       7.877   7.436 -12.069  0.00  0.00    -0.216 OA
BRANCH   8  10
ATOM     10  C   UNL d   1       8.270   5.126 -12.569  0.00  0.00     0.010 A 
ATOM     11  C   UNL d   1       9.437   4.880 -13.327  0.00  0.00     0.000 A 
ATOM     12  C   UNL d   1       9.456   3.851 -14.278  0.00  0.00     0.024 A 
ATOM     13  C   UNL d   1       8.307   3.068 -14.507  0.00  0.00     0.094 A 
ATOM     14  C   UNL d   1       7.134   3.321 -13.751  0.00  0.00     0.024 A 
ATOM     15  C   UNL d   1       7.114   4.350 -12.795  0.00  0.00     0.000 A 
BRANCH  13  16
ATOM     16  O   UNL d   1       8.406   2.105 -15.487  0.00  0.00    -0.331 OA
BRANCH  16  17
ATOM     17  C   UNL d   1       7.316   1.220 -15.699  0.00  0.00     0.149 C 
ATOM     18  C   UNL d   1       7.391   0.079 -14.673  0.00  0.00     0.035 C 
ENDBRANCH  16  17
ENDBRANCH  13  16
ENDBRANCH   8  10
ENDBRANCH   7   8
ENDBRANCH   1   7
BRANCH   4  19
ATOM     19  C   UNL d   1      11.002   8.098  -5.796  0.00  0.00     0.084 A 
ATOM     20  C   UNL d   1      11.409   9.281  -5.165  0.00  0.00     0.155 A 
ATOM     21  C   UNL d   1      12.029   9.217  -3.898  0.00  0.00     0.031 A 
ATOM     22  F   UNL d   1      11.203  10.489  -5.750  0.00  0.00    -0.203 F 
ATOM     23  C   UNL d   1      12.252   7.975  -3.274  0.00  0.00     0.002 A 
ATOM     24  C   UNL d   1      11.845   6.794  -3.912  0.00  0.00     0.002 A 
ATOM     25  C   UNL d   1      11.211   6.855  -5.175  0.00  0.00     0.019 A 
ENDBRANCH   4  19
TORSDOF 6
