REMARK  6 active torsions:
REMARK  status: ('A' for Active; 'I' for Inactive)
REMARK    1  A    between atoms: C_7  and  C_8 
REMARK    2  A    between atoms: C_8  and  C_9 
REMARK    3  A    between atoms: C_9  and  C_10 
REMARK    4  A    between atoms: C_10  and  N_11 
REMARK       I    between atoms: N_11  and  C_12 
REMARK       I    between atoms: N_14  and  C_15 
REMARK       I    between atoms: C_15  and  N_17 
REMARK    5  A    between atoms: N_17  and  C_18 
REMARK    6  A    between atoms: C_18  and  C_19 
ROOT
ATOM      1  N   UNL d   1       9.715   6.054 -10.187  0.00  0.00    -0.241 NA
ATOM      2  C   UNL d   1       9.571   6.581  -8.903  0.00  0.00     0.237 C 
ATOM      3  N   UNL d   1       8.770   5.799  -8.084  0.00  0.00    -0.060 NA
ATOM      4  N   UNL d   1      10.170   7.700  -8.592  0.00  0.00    -0.159 NA
ATOM      5  C   UNL d   1      10.019   8.270  -7.341  0.00  0.00     0.367 C 
ATOM      6  O   UNL d   1       9.205   8.006  -6.458  0.00  0.00    -0.243 OA
ATOM      7  N   UNL d   1      10.987   9.181  -7.103  0.00  0.00    -0.212 NA
ENDROOT
BRANCH   1   8
ATOM      8  C   UNL d   1       9.096   4.809 -10.638  0.00  0.00     0.129 C 
BRANCH   8   9
ATOM      9  C   UNL d   1       9.525   4.404 -12.052  0.00  0.00     0.032 C 
BRANCH   9  10
ATOM     10  C   UNL d   1       8.379   4.395 -13.079  0.00  0.00     0.036 C 
BRANCH  10  11
ATOM     11  C   UNL d   1       8.620   3.486 -14.241  0.00  0.00     0.024 A 
ATOM     12  C   UNL d   1       9.610   3.567 -15.198  0.00  0.00     0.064 A 
ATOM     13  C   UNL d   1      10.668   4.619 -15.326  0.00  0.00     0.052 C 
ATOM     14  N   UNL d   1       9.570   2.525 -16.135  0.00  0.00    -0.224 NA
ATOM     15  C   UNL d   1       8.570   1.671 -15.894  0.00  0.00     0.214 A 
ATOM     16  N   UNL d   1       8.277   0.554 -16.648  0.00  0.00    -0.120 N 
ATOM     17  S   UNL d   1       7.577   2.108 -14.525  0.00  0.00    -0.050 SA
ENDBRANCH  10  11
ENDBRANCH   9  10
ENDBRANCH   8   9
ENDBRANCH   1   8
BRANCH   7  18
ATOM     18  C   UNL d   1      11.180   9.855  -5.801  0.00  0.00     0.157 C 
BRANCH  18  19
ATOM     19  C   UNL d   1      11.603   8.970  -4.621  0.00  0.00     0.002 A 
ATOM     20  C   UNL d   1      11.688   7.544  -4.754  0.00  0.00    -0.002 A 
ATOM     21  C   UNL d   1      11.994   6.792  -3.618  0.00  0.00    -0.000 A 
ATOM     22  C   UNL d   1      12.284   7.369  -2.360  0.00  0.00    -0.000 A 
ATOM     23  C   UNL d   1      12.259   8.778  -2.243  0.00  0.00    -0.000 A 
ATOM     24  C   UNL d   1      11.884   9.553  -3.359  0.00  0.00    -0.002 A 
ENDBRANCH  18  19
ENDBRANCH   7  18
TORSDOF 6
