REMARK  6 active torsions:
REMARK  status: ('A' for Active; 'I' for Inactive)
REMARK    1  A    between atoms: N_12  and  C_13 
REMARK    2  A    between atoms: C_13  and  C_14 
REMARK    3  A    between atoms: C_14  and  C_15 
REMARK    4  A    between atoms: C_15  and  C_16 
REMARK    5  A    between atoms: C_16  and  N_17 
REMARK    6  A    between atoms: N_20  and  C_21 
ROOT
ATOM      1  N   UNL d   1       5.731   0.330 -14.616  0.00  0.00     0.141 N 
ATOM      2  C   UNL d   1       5.624   0.783 -13.226  0.00  0.00     0.274 C 
ATOM      3  C   UNL d   1       5.635   2.326 -13.143  0.00  0.00     0.137 C 
ATOM      4  N   UNL d   1       6.803   2.878 -13.832  0.00  0.00    -0.343 N 
ATOM      5  C   UNL d   1       7.020   2.359 -15.178  0.00  0.00     0.137 C 
ATOM      6  C   UNL d   1       7.003   0.831 -15.164  0.00  0.00     0.274 C 
ENDROOT
BRANCH   1   7
ATOM      7  C   UNL d   1       5.708  -1.134 -14.639  0.00  0.00     0.251 C 
BRANCH   7   8
ATOM      8  C   UNL d   1       5.568  -1.667 -16.075  0.00  0.00     0.037 C 
BRANCH   8   9
ATOM      9  C   UNL d   1       4.208  -1.418 -16.752  0.00  0.00     0.027 C 
BRANCH   9  10
ATOM     10  C   UNL d   1       4.240  -1.564 -18.293  0.00  0.00     0.112 C 
BRANCH  10  11
ATOM     11  N   UNL d   1       4.713  -2.886 -18.747  0.00  0.00    -0.271 N 
ATOM     12  C   UNL d   1       3.894  -3.869 -19.154  0.00  0.00     0.240 A 
ATOM     13  O   UNL d   1       2.665  -3.816 -19.232  0.00  0.00    -0.272 OA
ATOM     14  C   UNL d   1       4.682  -5.116 -19.550  0.00  0.00     0.093 A 
ATOM     15  C   UNL d   1       6.147  -4.680 -19.321  0.00  0.00     0.093 A 
ATOM     16  C   UNL d   1       4.679  -5.472 -21.065  0.00  0.00     0.031 C 
ATOM     17  C   UNL d   1       6.793  -4.835 -20.723  0.00  0.00     0.031 C 
ATOM     18  C   UNL d   1       6.011  -3.240 -18.870  0.00  0.00     0.240 A 
ATOM     19  C   UNL d   1       6.822  -6.316 -21.019  0.00  0.00    -0.030 C 
ATOM     20  C   UNL d   1       5.636  -4.418 -21.647  0.00  0.00     0.010 C 
ATOM     21  C   UNL d   1       5.558  -6.698 -21.224  0.00  0.00    -0.030 C 
ATOM     22  O   UNL d   1       6.999  -2.528 -18.693  0.00  0.00    -0.272 OA
ENDBRANCH  10  11
ENDBRANCH   9  10
ENDBRANCH   8   9
ENDBRANCH   7   8
ENDBRANCH   1   7
BRANCH   4  23
ATOM     23  C   UNL d   1       7.676   3.797 -13.221  0.00  0.00     0.081 A 
ATOM     24  C   UNL d   1       9.017   3.953 -13.638  0.00  0.00     0.140 A 
ATOM     25  C   UNL d   1       9.868   4.846 -13.016  0.00  0.00     0.126 A 
ATOM     26  O   UNL d   1       9.694   3.312 -14.624  0.00  0.00    -0.253 OA
ATOM     27  C   UNL d   1       9.462   5.633 -11.933  0.00  0.00     0.027 A 
ATOM     28  O   UNL d   1      11.086   4.788 -13.616  0.00  0.00    -0.255 OA
ATOM     29  C   UNL d   1       8.133   5.489 -11.484  0.00  0.00     0.004 A 
ATOM     30  C   UNL d   1       7.253   4.592 -12.127  0.00  0.00     0.019 A 
ATOM     31  C   UNL d   1      10.980   3.852 -14.651  0.00  0.00     0.498 A 
ATOM     32  F   UNL d   1      11.864   2.882 -14.487  0.00  0.00    -0.147 F 
ATOM     33  F   UNL d   1      11.219   4.437 -15.823  0.00  0.00    -0.147 F 
ENDBRANCH   4  23
TORSDOF 6
