REMARK  2 active torsions:
REMARK  status: ('A' for Active; 'I' for Inactive)
REMARK    1  A    between atoms: O_2  and  C_3 
REMARK    2  A    between atoms: N_17  and  C_18 
ROOT
ATOM      1  C   UNL d   1      11.511   3.674 -15.920  0.00  0.00     0.094 A 
ATOM      2  C   UNL d   1      12.210   2.872 -16.866  0.00  0.00     0.024 A 
ATOM      3  C   UNL d   1      11.855   1.534 -17.082  0.00  0.00     0.002 A 
ATOM      4  C   UNL d   1      10.793   0.969 -16.359  0.00  0.00    -0.004 A 
ATOM      5  C   UNL d   1      10.111   1.743 -15.393  0.00  0.00    -0.018 A 
ATOM      6  C   UNL d   1      10.460   3.086 -15.153  0.00  0.00     0.018 A 
ATOM      7  C   UNL d   1       9.679   3.815 -14.106  0.00  0.00    -0.001 A 
ATOM      8  C   UNL d   1      10.211   4.871 -13.354  0.00  0.00    -0.000 A 
ATOM      9  C   UNL d   1       9.479   5.566 -12.361  0.00  0.00    -0.000 A 
ATOM     10  C   UNL d   1       8.166   5.198 -12.071  0.00  0.00    -0.004 A 
ATOM     11  C   UNL d   1       7.586   4.124 -12.757  0.00  0.00    -0.022 A 
ATOM     12  C   UNL d   1       8.364   3.429 -13.737  0.00  0.00     0.005 A 
ATOM     13  C   UNL d   1       7.803   2.193 -14.474  0.00  0.00     0.245 C 
ATOM     14  C   UNL d   1       8.916   1.122 -14.680  0.00  0.00     0.064 C 
ATOM     15  N   UNL d   1       6.582   1.604 -13.889  0.00  0.00     0.138 N 
ATOM     16  C   UNL d   1       5.643   2.676 -13.572  0.00  0.00     0.255 C 
ATOM     17  C   UNL d   1       6.211   3.559 -12.467  0.00  0.00     0.061 C 
ENDROOT
BRANCH  15  18
ATOM     18  C   UNL d   1       5.931   0.493 -14.604  0.00  0.00     0.220 C 
ATOM     19  C   UNL d   1       6.375  -0.860 -14.014  0.00  0.00     0.035 C 
ATOM     20  C   UNL d   1       6.047   0.545 -16.159  0.00  0.00     0.035 C 
ENDBRANCH  15  18
BRANCH   1  21
ATOM     21  O   UNL d   1      11.801   5.010 -15.743  0.00  0.00    -0.328 OA
ATOM     22  C   UNL d   1      12.873   5.584 -16.469  0.00  0.00     0.181 C 
ENDBRANCH   1  21
TORSDOF 2
