REMARK  2 active torsions:
REMARK  status: ('A' for Active; 'I' for Inactive)
REMARK    1  A    between atoms: N_7  and  S_8 
REMARK    2  A    between atoms: S_8  and  C_11 
ROOT
ATOM      1  N   UNL d   1       3.663  -0.769 -14.059  0.00  0.00    -0.189 NA
ATOM      2  C   UNL d   1       4.542  -0.020 -14.020  0.00  0.00     0.126 C 
ATOM      3  C   UNL d   1       5.638   0.927 -13.967  0.00  0.00     0.168 A 
ATOM      4  C   UNL d   1       5.459   2.148 -13.259  0.00  0.00     0.037 A 
ATOM      5  C   UNL d   1       6.464   3.127 -13.354  0.00  0.00     0.024 A 
ATOM      6  C   UNL d   1       6.570   4.350 -12.751  0.00  0.00     0.092 A 
ATOM      7  N   UNL d   1       7.890   4.749 -13.059  0.00  0.00    -0.231 N 
ATOM      8  C   UNL d   1       8.493   3.811 -13.840  0.00  0.00     0.077 A 
ATOM      9  C   UNL d   1       9.767   3.629 -14.440  0.00  0.00     0.018 A 
ATOM     10  C   UNL d   1      10.041   2.445 -15.166  0.00  0.00     0.004 A 
ATOM     11  C   UNL d   1       9.062   1.427 -15.282  0.00  0.00     0.025 A 
ATOM     12  C   UNL d   1       7.790   1.570 -14.688  0.00  0.00     0.102 A 
ATOM     13  C   UNL d   1       7.601   2.789 -14.046  0.00  0.00     0.041 A 
ATOM     14  O   UNL d   1       6.800   0.618 -14.674  0.00  0.00    -0.297 OA
ENDROOT
BRANCH   7  15
ATOM     15  S   UNL d   1       8.579   6.210 -12.490  0.00  0.00     0.271 S 
ATOM     16  O   UNL d   1       9.853   6.265 -13.186  0.00  0.00    -0.200 OA
ATOM     17  O   UNL d   1       7.531   7.214 -12.723  0.00  0.00    -0.200 OA
BRANCH  15  18
ATOM     18  C   UNL d   1       8.918   6.021 -10.743  0.00  0.00     0.104 A 
ATOM     19  C   UNL d   1       9.683   6.979 -10.004  0.00  0.00     0.012 A 
ATOM     20  C   UNL d   1       9.879   6.762  -8.617  0.00  0.00     0.001 A 
ATOM     21  C   UNL d   1      10.249   8.152 -10.555  0.00  0.00     0.001 A 
ATOM     22  C   UNL d   1       9.343   5.638  -8.002  0.00  0.00     0.000 A 
ATOM     23  C   UNL d   1      10.603   7.655  -7.803  0.00  0.00     0.000 A 
ATOM     24  C   UNL d   1       8.635   4.682  -8.735  0.00  0.00     0.001 A 
ATOM     25  C   UNL d   1       8.414   4.877 -10.097  0.00  0.00     0.013 A 
ATOM     26  C   UNL d   1      11.175   8.797  -8.370  0.00  0.00     0.000 A 
ATOM     27  C   UNL d   1      11.004   9.037  -9.746  0.00  0.00     0.000 A 
ENDBRANCH  15  18
ENDBRANCH   7  15
TORSDOF 2
