REMARK  8 active torsions:
REMARK  status: ('A' for Active; 'I' for Inactive)
REMARK    1  A    between atoms: O_2  and  C_3 
REMARK    2  A    between atoms: C_8  and  N_9 
REMARK    3  A    between atoms: N_12  and  C_13 
REMARK    4  A    between atoms: C_13  and  C_14 
REMARK    5  A    between atoms: C_14  and  C_15 
REMARK    6  A    between atoms: C_15  and  C_16 
REMARK    7  A    between atoms: C_16  and  N_17 
REMARK       I    between atoms: N_17  and  C_18 
REMARK    8  A    between atoms: C_18  and  C_20 
ROOT
ATOM      1  C   UNL d   1       7.106   6.084 -12.568  0.00  0.00     0.037 C 
ENDROOT
BRANCH   1   2
ATOM      2  C   UNL d   1       6.331   4.795 -12.924  0.00  0.00     0.251 C 
BRANCH   2   3
ATOM      3  N   UNL d   1       7.192   3.625 -13.202  0.00  0.00     0.141 N 
ATOM      4  C   UNL d   1       6.427   2.608 -13.941  0.00  0.00     0.274 C 
ATOM      5  C   UNL d   1       7.252   1.314 -14.170  0.00  0.00     0.137 C 
ATOM      6  N   UNL d   1       8.540   1.645 -14.788  0.00  0.00    -0.343 N 
ATOM      7  C   UNL d   1       9.304   2.698 -14.135  0.00  0.00     0.137 C 
ATOM      8  C   UNL d   1       8.437   3.924 -13.934  0.00  0.00     0.274 C 
BRANCH   6   9
ATOM      9  C   UNL d   1       8.980   1.098 -15.999  0.00  0.00     0.079 A 
ATOM     10  C   UNL d   1       8.101   0.862 -17.103  0.00  0.00     0.110 A 
ATOM     11  C   UNL d   1       8.608   0.231 -18.265  0.00  0.00     0.026 A 
ATOM     12  C   UNL d   1       9.969  -0.104 -18.369  0.00  0.00     0.002 A 
ATOM     13  C   UNL d   1      10.850   0.184 -17.316  0.00  0.00     0.002 A 
ATOM     14  C   UNL d   1      10.358   0.775 -16.138  0.00  0.00     0.019 A 
BRANCH  10  15
ATOM     15  O   UNL d   1       6.801   1.307 -17.005  0.00  0.00    -0.327 OA
ATOM     16  C   UNL d   1       5.852   0.828 -17.935  0.00  0.00     0.181 C 
ENDBRANCH  10  15
ENDBRANCH   6   9
ENDBRANCH   2   3
ENDBRANCH   1   2
BRANCH   1  17
ATOM     17  C   UNL d   1       7.971   5.933 -11.307  0.00  0.00     0.029 C 
BRANCH  17  18
ATOM     18  C   UNL d   1       9.138   6.934 -11.275  0.00  0.00     0.129 C 
BRANCH  18  19
ATOM     19  N   UNL d   1       9.525   7.302  -9.925  0.00  0.00    -0.233 NA
ATOM     20  C   UNL d   1       9.853   6.488  -8.919  0.00  0.00     0.293 C 
ATOM     21  O   UNL d   1       9.861   5.256  -8.991  0.00  0.00    -0.264 OA
BRANCH  20  22
ATOM     22  C   UNL d   1      10.283   7.169  -7.696  0.00  0.00     0.139 A 
ATOM     23  N   UNL d   1      10.882   6.403  -6.713  0.00  0.00    -0.241 NA
ATOM     24  C   UNL d   1      11.217   7.175  -5.625  0.00  0.00     0.082 A 
ATOM     25  C   UNL d   1      10.812   8.504  -5.961  0.00  0.00     0.021 A 
ATOM     26  C   UNL d   1      11.832   6.857  -4.400  0.00  0.00     0.021 A 
ATOM     27  C   UNL d   1      10.199   8.472  -7.260  0.00  0.00     0.026 A 
ATOM     28  C   UNL d   1      11.063   9.509  -5.002  0.00  0.00     0.029 A 
ATOM     29  C   UNL d   1      11.671   9.184  -3.780  0.00  0.00     0.131 A 
ATOM     30  O   UNL d   1      11.854  10.127  -2.833  0.00  0.00    -0.190 OA
ATOM     31  C   UNL d   1      12.059   7.873  -3.466  0.00  0.00     0.029 A 
ENDBRANCH  20  22
ENDBRANCH  18  19
ENDBRANCH  17  18
ENDBRANCH   1  17
TORSDOF 8
