REMARK  7 active torsions:
REMARK  status: ('A' for Active; 'I' for Inactive)
REMARK    1  A    between atoms: N_12  and  C_13 
REMARK    2  A    between atoms: C_13  and  C_14 
REMARK    3  A    between atoms: C_14  and  C_15 
REMARK    4  A    between atoms: C_15  and  C_16 
REMARK    5  A    between atoms: C_16  and  C_17 
REMARK    6  A    between atoms: C_17  and  N_18 
REMARK    7  A    between atoms: C_21  and  C_22 
ROOT
ATOM      1  C   UNL d   1       8.448   5.992 -11.427  0.00  0.00     0.251 C 
ENDROOT
BRANCH   1   2
ATOM      2  C   UNL d   1       9.746   6.775 -11.675  0.00  0.00     0.035 C 
BRANCH   2   3
ATOM      3  C   UNL d   1       9.873   8.066 -10.854  0.00  0.00     0.004 C 
BRANCH   3   4
ATOM      4  C   UNL d   1      10.197   7.734  -9.400  0.00  0.00     0.025 C 
BRANCH   4   5
ATOM      5  C   UNL d   1      10.443   8.963  -8.511  0.00  0.00     0.112 C 
BRANCH   5   6
ATOM      6  N   UNL d   1      10.845   8.643  -7.131  0.00  0.00    -0.264 N 
ATOM      7  C   UNL d   1      10.809   7.406  -6.575  0.00  0.00     0.263 A 
ATOM      8  O   UNL d   1      10.461   6.339  -7.068  0.00  0.00    -0.267 OA
ATOM      9  C   UNL d   1      11.301   7.573  -5.193  0.00  0.00     0.061 A 
ATOM     10  C   UNL d   1      11.591   8.887  -4.988  0.00  0.00     0.063 A 
ATOM     11  C   UNL d   1      11.463   6.607  -4.201  0.00  0.00     0.007 A 
ATOM     12  C   UNL d   1      12.067   9.353  -3.745  0.00  0.00     0.035 A 
ATOM     13  C   UNL d   1      11.301   9.585  -6.261  0.00  0.00     0.263 A 
ATOM     14  C   UNL d   1      12.269   8.389  -2.723  0.00  0.00     0.140 A 
ATOM     15  C   UNL d   1      11.969   7.020  -2.947  0.00  0.00     0.030 A 
ATOM     16  F   UNL d   1      12.745   8.773  -1.520  0.00  0.00    -0.204 F 
ATOM     17  O   UNL d   1      11.459  10.788  -6.457  0.00  0.00    -0.267 OA
ENDBRANCH   5   6
ENDBRANCH   4   5
ENDBRANCH   3   4
ENDBRANCH   2   3
ENDBRANCH   1   2
BRANCH   1  18
ATOM     18  N   UNL d   1       8.152   5.095 -12.548  0.00  0.00     0.142 N 
ATOM     19  C   UNL d   1       6.916   4.373 -12.269  0.00  0.00     0.255 C 
ATOM     20  C   UNL d   1       6.480   3.597 -13.522  0.00  0.00     0.061 C 
ATOM     21  C   UNL d   1       7.614   2.765 -14.107  0.00  0.00    -0.021 C 
ATOM     22  C   UNL d   1       8.884   3.070 -13.792  0.00  0.00     0.005 C 
ATOM     23  C   UNL d   1       9.257   4.168 -12.812  0.00  0.00     0.276 C 
BRANCH  21  24
ATOM     24  C   UNL d   1       7.331   1.713 -15.096  0.00  0.00     0.017 A 
ATOM     25  C   UNL d   1       6.266   0.744 -15.036  0.00  0.00     0.021 A 
ATOM     26  C   UNL d   1       6.365  -0.039 -16.226  0.00  0.00     0.082 A 
ATOM     27  C   UNL d   1       5.214   0.419 -14.140  0.00  0.00     0.031 A 
ATOM     28  N   UNL d   1       7.477   0.430 -16.912  0.00  0.00    -0.244 NA
ATOM     29  C   UNL d   1       5.451  -1.067 -16.520  0.00  0.00     0.021 A 
ATOM     30  C   UNL d   1       8.073   1.476 -16.228  0.00  0.00     0.099 A 
ATOM     31  C   UNL d   1       4.396  -1.336 -15.626  0.00  0.00     0.031 A 
ATOM     32  C   UNL d   1       4.277  -0.586 -14.441  0.00  0.00     0.140 A 
ATOM     33  F   UNL d   1       3.253  -0.819 -13.587  0.00  0.00    -0.204 F 
ENDBRANCH  21  24
ENDBRANCH   1  18
TORSDOF 7
