REMARK  3 active torsions:
REMARK  status: ('A' for Active; 'I' for Inactive)
REMARK    1  A    between atoms: S_2  and  C_4 
REMARK    2  A    between atoms: S_2  and  N_11 
REMARK    3  A    between atoms: C_15  and  N_16 
ROOT
ATOM      1  N   UNL d   1       9.586   5.840 -10.675  0.00  0.00    -0.212 N 
ATOM      2  C   UNL d   1       9.266   5.121  -9.586  0.00  0.00     0.193 A 
ATOM      3  N   UNL d   1       9.440   5.687  -8.394  0.00  0.00    -0.220 NA
ATOM      4  C   UNL d   1       9.982   6.921  -8.730  0.00  0.00     0.134 A 
ATOM      5  C   UNL d   1      10.492   8.013  -7.938  0.00  0.00     0.160 A 
ATOM      6  N   UNL d   1      11.042   9.091  -8.524  0.00  0.00    -0.226 NA
ATOM      7  C   UNL d   1      11.037   9.223  -9.851  0.00  0.00     0.102 A 
ATOM      8  C   UNL d   1      10.491   8.264 -10.711  0.00  0.00     0.041 A 
ATOM      9  C   UNL d   1      10.040   7.066 -10.161  0.00  0.00     0.099 A 
ENDROOT
BRANCH   1  10
ATOM     10  S   UNL d   1       9.361   5.388 -12.312  0.00  0.00     0.273 S 
ATOM     11  O   UNL d   1      10.253   4.279 -12.672  0.00  0.00    -0.200 OA
ATOM     12  O   UNL d   1       9.353   6.661 -13.009  0.00  0.00    -0.200 OA
BRANCH  10  13
ATOM     13  C   UNL d   1       7.751   4.776 -12.464  0.00  0.00     0.105 A 
ATOM     14  C   UNL d   1       7.542   3.631 -13.256  0.00  0.00     0.024 A 
ATOM     15  C   UNL d   1       6.260   3.053 -13.287  0.00  0.00     0.059 A 
ATOM     16  C   UNL d   1       5.227   3.692 -12.597  0.00  0.00     0.011 A 
ATOM     17 CL   UNL d   1       6.005   1.537 -14.037  0.00  0.00    -0.082 Cl
ATOM     18  C   UNL d   1       5.454   4.888 -11.878  0.00  0.00     0.002 A 
ATOM     19  C   UNL d   1       6.731   5.447 -11.794  0.00  0.00     0.013 A 
ENDBRANCH  10  13
ENDBRANCH   1  10
BRANCH   5  20
ATOM     20  N   UNL d   1      10.529   8.011  -6.526  0.00  0.00    -0.328 N 
ATOM     21  C   UNL d   1      10.693   9.223  -5.746  0.00  0.00     0.141 C 
ATOM     22  C   UNL d   1      11.777   8.999  -4.661  0.00  0.00     0.314 C 
ATOM     23  N   UNL d   1      11.521   7.795  -3.862  0.00  0.00     0.343 N 
ATOM     24  C   UNL d   1      11.468   6.642  -4.744  0.00  0.00     0.314 C 
ATOM     25  C   UNL d   1      10.359   6.780  -5.770  0.00  0.00     0.141 C 
ENDBRANCH   5  20
TORSDOF 3
