REMARK  6 active torsions:
REMARK  status: ('A' for Active; 'I' for Inactive)
REMARK    1  A    between atoms: N_11  and  C_12 
REMARK    2  A    between atoms: C_12  and  C_13 
REMARK    3  A    between atoms: C_13  and  C_14 
REMARK    4  A    between atoms: C_14  and  C_15 
REMARK    5  A    between atoms: C_15  and  N_16 
REMARK    6  A    between atoms: N_19  and  C_20 
ROOT
ATOM      1  N   UNL d   1       7.732   5.287 -11.971  0.00  0.00     0.141 N 
ATOM      2  C   UNL d   1       8.181   4.728 -10.682  0.00  0.00     0.274 C 
ATOM      3  C   UNL d   1       8.460   5.819  -9.645  0.00  0.00     0.137 C 
ATOM      4  N   UNL d   1       9.399   6.787 -10.197  0.00  0.00    -0.344 N 
ATOM      5  C   UNL d   1       9.063   7.333 -11.547  0.00  0.00     0.137 C 
ATOM      6  C   UNL d   1       8.791   6.163 -12.502  0.00  0.00     0.274 C 
ENDROOT
BRANCH   1   7
ATOM      7  C   UNL d   1       7.552   4.183 -12.896  0.00  0.00     0.251 C 
BRANCH   7   8
ATOM      8  C   UNL d   1       6.243   3.405 -12.609  0.00  0.00     0.037 C 
BRANCH   8   9
ATOM      9  C   UNL d   1       5.914   2.503 -13.790  0.00  0.00     0.027 C 
BRANCH   9  10
ATOM     10  C   UNL d   1       6.866   1.324 -14.029  0.00  0.00     0.112 C 
BRANCH  10  11
ATOM     11  N   UNL d   1       6.490   0.564 -15.216  0.00  0.00    -0.271 N 
ATOM     12  C   UNL d   1       7.048   0.747 -16.421  0.00  0.00     0.240 C 
ATOM     13  O   UNL d   1       7.995   1.476 -16.699  0.00  0.00    -0.272 OA
ATOM     14  C   UNL d   1       6.262  -0.042 -17.442  0.00  0.00     0.093 C 
ATOM     15  C   UNL d   1       5.582  -1.090 -16.576  0.00  0.00     0.093 C 
ATOM     16  C   UNL d   1       6.921  -0.718 -18.643  0.00  0.00     0.035 C 
ATOM     17  C   UNL d   1       4.320  -1.584 -17.289  0.00  0.00     0.035 C 
ATOM     18  C   UNL d   1       5.544  -0.398 -15.232  0.00  0.00     0.240 C 
ATOM     19  C   UNL d   1       4.712  -1.983 -18.715  0.00  0.00    -0.030 C 
ATOM     20  C   UNL d   1       5.873  -1.614 -19.309  0.00  0.00    -0.030 C 
ATOM     21  O   UNL d   1       4.790  -0.716 -14.310  0.00  0.00    -0.272 OA
ENDBRANCH  10  11
ENDBRANCH   9  10
ENDBRANCH   8   9
ENDBRANCH   7   8
ENDBRANCH   1   7
BRANCH   4  22
ATOM     22  C   UNL d   1      10.367   7.364  -9.350  0.00  0.00     0.057 C 
ATOM     23  C   UNL d   1      10.367   7.297  -7.919  0.00  0.00     0.022 C 
ATOM     24  C   UNL d   1      11.552   7.786  -7.245  0.00  0.00     0.031 C 
ATOM     25  C   UNL d   1       9.372   6.817  -6.970  0.00  0.00     0.009 C 
ATOM     26  C   UNL d   1      12.644   8.342  -7.952  0.00  0.00     0.007 C 
ATOM     27  S   UNL d   1      11.459   7.571  -5.505  0.00  0.00    -0.086 SA
ATOM     28  C   UNL d   1      12.590   8.373  -9.326  0.00  0.00     0.002 C 
ATOM     29  C   UNL d   1      11.438   8.010  -9.993  0.00  0.00     0.017 C 
ATOM     30  C   UNL d   1       9.878   6.818  -5.691  0.00  0.00     0.035 C 
ENDBRANCH   4  22
TORSDOF 6
