REMARK  5 active torsions:
REMARK  status: ('A' for Active; 'I' for Inactive)
REMARK    1  A    between atoms: N_11  and  C_12 
REMARK    2  A    between atoms: C_12  and  C_13 
REMARK    3  A    between atoms: C_13  and  C_14 
REMARK    4  A    between atoms: C_14  and  N_15 
REMARK    5  A    between atoms: C_18  and  N_19 
ROOT
ATOM      1  N   UNL d   1       9.238   5.751  -9.434  0.00  0.00     0.137 N 
ATOM      2  C   UNL d   1      10.222   5.047  -8.616  0.00  0.00     0.252 C 
ATOM      3  C   UNL d   1      11.035   6.099  -7.818  0.00  0.00     0.058 C 
ATOM      4  C   UNL d   1      10.108   6.890  -6.895  0.00  0.00     0.094 C 
ATOM      5  C   UNL d   1       8.906   7.418  -7.705  0.00  0.00     0.058 C 
ATOM      6  C   UNL d   1       8.258   6.232  -8.459  0.00  0.00     0.252 C 
ENDROOT
BRANCH   1   7
ATOM      7  C   UNL d   1       8.472   4.806 -10.276  0.00  0.00     0.252 C 
BRANCH   7   8
ATOM      8  C   UNL d   1       9.217   4.364 -11.576  0.00  0.00     0.060 C 
BRANCH   8   9
ATOM      9  C   UNL d   1       8.585   4.932 -12.863  0.00  0.00     0.111 C 
BRANCH   9  10
ATOM     10  N   UNL d   1       8.996   4.164 -14.057  0.00  0.00    -0.295 N 
ATOM     11  C   UNL d   1      10.116   4.521 -14.743  0.00  0.00     0.268 C 
ATOM     12  O   UNL d   1      10.903   5.387 -14.377  0.00  0.00    -0.269 OA
ATOM     13  C   UNL d   1      10.380   3.807 -16.078  0.00  0.00     0.236 C 
ATOM     14  O   UNL d   1      10.035   2.427 -16.028  0.00  0.00    -0.319 OA
ATOM     15  C   UNL d   1       8.811   2.147 -15.466  0.00  0.00     0.110 A 
ATOM     16  C   UNL d   1       8.251   3.013 -14.489  0.00  0.00     0.085 A 
ATOM     17  C   UNL d   1       8.145   0.973 -15.862  0.00  0.00     0.026 A 
ATOM     18  C   UNL d   1       6.979   2.674 -13.949  0.00  0.00     0.019 A 
ATOM     19  C   UNL d   1       6.315   1.501 -14.353  0.00  0.00     0.002 A 
ATOM     20  C   UNL d   1       6.892   0.648 -15.306  0.00  0.00     0.002 A 
ENDBRANCH   9  10
ENDBRANCH   8   9
ENDBRANCH   7   8
ENDBRANCH   1   7
BRANCH   4  21
ATOM     21  N   UNL d   1      10.880   7.952  -6.239  0.00  0.00    -0.281 N 
ATOM     22  C   UNL d   1      11.408   7.801  -4.947  0.00  0.00     0.082 A 
ATOM     23  C   UNL d   1      12.026   8.988  -4.655  0.00  0.00     0.104 A 
ATOM     24  C   UNL d   1      11.320   6.747  -4.019  0.00  0.00     0.021 A 
ATOM     25  N   UNL d   1      11.952   9.808  -5.771  0.00  0.00    -0.191 NA
ATOM     26  C   UNL d   1      12.595   9.232  -3.415  0.00  0.00     0.050 A 
ATOM     27  C   UNL d   1      11.295   9.139  -6.742  0.00  0.00     0.350 A 
ATOM     28  O   UNL d   1      11.140   9.550  -7.890  0.00  0.00    -0.244 OA
ATOM     29  C   UNL d   1      12.521   8.194  -2.447  0.00  0.00     0.142 A 
ATOM     30  F   UNL d   1      13.062   8.418  -1.231  0.00  0.00    -0.204 F 
ATOM     31  C   UNL d   1      11.876   6.966  -2.735  0.00  0.00     0.031 A 
ENDBRANCH   4  21
TORSDOF 5
