REMARK  6 active torsions:
REMARK  status: ('A' for Active; 'I' for Inactive)
REMARK    1  A    between atoms: C_2  and  N_3 
REMARK    2  A    between atoms: N_3  and  C_5 
REMARK    3  A    between atoms: C_5  and  C_6 
REMARK    4  A    between atoms: C_6  and  C_7 
REMARK    5  A    between atoms: C_8  and  C_9 
REMARK    6  A    between atoms: C_13  and  N_14 
ROOT
ATOM      1  C   UNL d   1       9.006   4.972 -12.730  0.00  0.00    -0.001 A 
ATOM      2  C   UNL d   1       8.683   5.536 -11.521  0.00  0.00     0.077 A 
ATOM      3  N   UNL d   1       7.455   5.036 -11.119  0.00  0.00    -0.246 NA
ATOM      4  C   UNL d   1       6.956   4.150 -12.054  0.00  0.00     0.081 A 
ATOM      5  C   UNL d   1       5.769   3.396 -12.090  0.00  0.00     0.019 A 
ATOM      6  C   UNL d   1       5.535   2.505 -13.156  0.00  0.00     0.002 A 
ATOM      7  C   UNL d   1       6.493   2.390 -14.176  0.00  0.00     0.000 A 
ATOM      8  C   UNL d   1       7.674   3.159 -14.143  0.00  0.00     0.001 A 
ATOM      9  C   UNL d   1       7.936   4.064 -13.080  0.00  0.00     0.015 A 
ENDROOT
BRANCH   2  10
ATOM     10  C   UNL d   1       9.373   6.502 -10.654  0.00  0.00     0.019 A 
ATOM     11  C   UNL d   1       9.518   6.283  -9.267  0.00  0.00     0.025 A 
ATOM     12  C   UNL d   1      10.163   7.240  -8.450  0.00  0.00     0.127 A 
ATOM     13  C   UNL d   1      10.663   8.431  -9.010  0.00  0.00     0.024 A 
ATOM     14  C   UNL d   1      10.517   8.662 -10.381  0.00  0.00     0.002 A 
ATOM     15  C   UNL d   1       9.858   7.721 -11.189  0.00  0.00     0.002 A 
BRANCH  12  16
ATOM     16  N   UNL d   1      10.322   7.002  -7.022  0.00  0.00    -0.114 N 
ATOM     17  O   UNL d   1       9.304   6.780  -6.381  0.00  0.00    -0.532 OA
ATOM     18  O   UNL d   1      11.452   7.065  -6.550  0.00  0.00    -0.532 OA
ENDBRANCH  12  16
ENDBRANCH   2  10
BRANCH   1  19
ATOM     19  C   UNL d   1      10.275   5.224 -13.474  0.00  0.00     0.063 C 
BRANCH  19  20
ATOM     20  C   UNL d   1      10.370   4.463 -14.795  0.00  0.00     0.255 C 
BRANCH  20  21
ATOM     21  N   UNL d   1      11.599   4.659 -15.562  0.00  0.00     0.139 N 
ATOM     22  C   UNL d   1      12.779   4.272 -14.802  0.00  0.00     0.285 C 
BRANCH  21  23
ATOM     23  C   UNL d   1      11.514   3.913 -16.828  0.00  0.00     0.250 C 
ATOM     24  C   UNL d   1      11.393   2.372 -16.685  0.00  0.00     0.037 C 
ENDBRANCH  21  23
ENDBRANCH  20  21
ENDBRANCH  19  20
ENDBRANCH   1  19
TORSDOF 6
