REMARK  3 active torsions:
REMARK  status: ('A' for Active; 'I' for Inactive)
REMARK    1  A    between atoms: N_10  and  C_11 
REMARK    2  A    between atoms: N_14  and  C_15 
REMARK    3  A    between atoms: C_15  and  C_16 
ROOT
ATOM      1  C   UNL d   1       9.661   7.240  -9.051  0.00  0.00     0.094 C 
ATOM      2  C   UNL d   1       9.916   5.738  -8.898  0.00  0.00     0.058 C 
ATOM      3  C   UNL d   1       9.107   4.929  -9.887  0.00  0.00     0.253 C 
ATOM      4  N   UNL d   1       9.447   5.281 -11.263  0.00  0.00     0.141 N 
ATOM      5  C   UNL d   1       9.055   6.666 -11.488  0.00  0.00     0.253 C 
ATOM      6  C   UNL d   1       9.826   7.588 -10.557  0.00  0.00     0.058 C 
ENDROOT
BRANCH   1   7
ATOM      7  N   UNL d   1      10.485   8.055  -8.149  0.00  0.00    -0.281 N 
ATOM      8  C   UNL d   1      11.205   9.160  -8.461  0.00  0.00     0.350 A 
ATOM      9  O   UNL d   1      11.307   9.702  -9.558  0.00  0.00    -0.244 OA
ATOM     10  N   UNL d   1      11.841   9.584  -7.353  0.00  0.00    -0.191 NA
ATOM     11  C   UNL d   1      11.550   8.767  -6.294  0.00  0.00     0.102 A 
ATOM     12  C   UNL d   1      10.698   7.795  -6.775  0.00  0.00     0.082 A 
ATOM     13  C   UNL d   1      12.037   8.831  -4.980  0.00  0.00     0.021 C 
ATOM     14  C   UNL d   1      10.231   6.802  -5.915  0.00  0.00     0.019 C 
ATOM     15  C   UNL d   1      10.779   6.772  -4.621  0.00  0.00     0.002 C 
ATOM     16  C   UNL d   1      11.645   7.786  -4.133  0.00  0.00     0.002 C 
ENDBRANCH   1   7
BRANCH   4  17
ATOM     17  C   UNL d   1       8.717   4.435 -12.197  0.00  0.00     0.277 C 
BRANCH  17  18
ATOM     18  C   UNL d   1       9.434   3.903 -13.391  0.00  0.00     0.018 A 
ATOM     19  C   UNL d   1       8.854   2.999 -14.356  0.00  0.00     0.004 A 
ATOM     20  C   UNL d   1       9.790   2.631 -15.372  0.00  0.00     0.029 A 
ATOM     21  C   UNL d   1       7.555   2.444 -14.443  0.00  0.00     0.000 A 
ATOM     22  S   UNL d   1      11.354   3.381 -15.096  0.00  0.00    -0.087 SA
ATOM     23  C   UNL d   1       9.433   1.773 -16.422  0.00  0.00     0.006 A 
ATOM     24  C   UNL d   1      10.751   4.162 -13.676  0.00  0.00     0.033 A 
ATOM     25  C   UNL d   1       8.130   1.253 -16.490  0.00  0.00     0.001 A 
ATOM     26  C   UNL d   1       7.194   1.586 -15.496  0.00  0.00     0.000 A 
ENDBRANCH  17  18
ENDBRANCH   4  17
TORSDOF 3
