REMARK  8 active torsions:
REMARK  status: ('A' for Active; 'I' for Inactive)
REMARK    1  A    between atoms: C_6  and  C_7 
REMARK    2  A    between atoms: C_10  and  S_11 
REMARK    3  A    between atoms: S_11  and  C_12 
REMARK    4  A    between atoms: C_12  and  C_13 
REMARK    5  A    between atoms: C_13  and  C_14 
REMARK    6  A    between atoms: C_14  and  N_15 
REMARK    7  A    between atoms: C_18  and  C_19 
REMARK    8  A    between atoms: C_23  and  C_24 
ROOT
ATOM      1  N   UNL d   1       9.950   4.040 -18.634  0.00  0.00     0.137 N 
ATOM      2  C   UNL d   1      11.137   4.795 -18.205  0.00  0.00     0.251 C 
ATOM      3  C   UNL d   1      11.113   6.230 -18.774  0.00  0.00     0.039 C 
ATOM      4  C   UNL d   1      10.794   6.265 -20.264  0.00  0.00     0.023 A 
ATOM      5  C   UNL d   1       9.329   6.233 -20.686  0.00  0.00     0.006 A 
ATOM      6  C   UNL d   1      10.191   5.019 -20.887  0.00  0.00     0.037 A 
ATOM      7  C   UNL d   1      10.016   3.762 -20.057  0.00  0.00     0.251 C 
ENDROOT
BRANCH   1   8
ATOM      8  C   UNL d   1       9.803   2.762 -17.940  0.00  0.00     0.251 C 
BRANCH   8   9
ATOM      9  C   UNL d   1       9.351   3.065 -16.523  0.00  0.00     0.047 C 
BRANCH   9  10
ATOM     10  C   UNL d   1       8.545   1.969 -15.793  0.00  0.00     0.067 C 
BRANCH  10  11
ATOM     11  S   UNL d   1       7.484   2.642 -14.481  0.00  0.00    -0.075 SA
BRANCH  11  12
ATOM     12  C   UNL d   1       8.567   3.679 -13.570  0.00  0.00     0.193 C 
ATOM     13  N   UNL d   1       9.832   3.922 -13.820  0.00  0.00    -0.122 NA
ATOM     14  N   UNL d   1      10.239   4.915 -13.025  0.00  0.00    -0.126 NA
ATOM     15  C   UNL d   1       9.211   5.119 -12.177  0.00  0.00     0.191 C 
ATOM     16  N   UNL d   1       8.130   4.382 -12.470  0.00  0.00    -0.287 N 
ATOM     17  C   UNL d   1       6.846   4.363 -11.749  0.00  0.00     0.134 C 
BRANCH  15  18
ATOM     18  C   UNL d   1       9.349   6.049 -11.057  0.00  0.00     0.151 A 
ATOM     19  C   UNL d   1       9.395   5.863  -9.703  0.00  0.00     0.087 A 
ATOM     20  C   UNL d   1       9.170   4.604  -8.915  0.00  0.00     0.054 C 
ATOM     21  N   UNL d   1       9.771   7.066  -9.084  0.00  0.00    -0.221 NA
ATOM     22  C   UNL d   1       9.852   7.913 -10.109  0.00  0.00     0.225 A 
ATOM     23  O   UNL d   1       9.658   7.344 -11.337  0.00  0.00    -0.282 OA
ENDBRANCH  15  18
ENDBRANCH  11  12
ENDBRANCH  10  11
ENDBRANCH   9  10
ENDBRANCH   8   9
ENDBRANCH   1   8
BRANCH   4  24
ATOM     24  C   UNL d   1      11.799   7.063 -21.048  0.00  0.00    -0.023 A 
ATOM     25  C   UNL d   1      13.138   6.622 -21.157  0.00  0.00    -0.000 A 
ATOM     26  C   UNL d   1      14.093   7.370 -21.880  0.00  0.00     0.071 A 
ATOM     27  C   UNL d   1      13.699   8.568 -22.516  0.00  0.00     0.004 A 
ATOM     28  C   UNL d   1      12.367   9.008 -22.426  0.00  0.00    -0.000 A 
ATOM     29  C   UNL d   1      11.427   8.267 -21.686  0.00  0.00    -0.004 A 
BRANCH  26  30
ATOM     30  C   UNL d   1      15.532   6.880 -21.954  0.00  0.00     0.419 C 
ATOM     31  F   UNL d   1      15.549   5.613 -22.366  0.00  0.00    -0.166 F 
ATOM     32  F   UNL d   1      16.262   7.609 -22.799  0.00  0.00    -0.166 F 
ATOM     33  F   UNL d   1      16.090   6.946 -20.745  0.00  0.00    -0.166 F 
ENDBRANCH  26  30
ENDBRANCH   4  24
TORSDOF 8
