REMARK  6 active torsions:
REMARK  status: ('A' for Active; 'I' for Inactive)
REMARK    1  A    between atoms: C_8  and  N_9 
REMARK    2  A    between atoms: N_12  and  C_13 
REMARK    3  A    between atoms: C_13  and  C_14 
REMARK    4  A    between atoms: C_14  and  C_15 
REMARK    5  A    between atoms: C_15  and  N_16 
REMARK    6  A    between atoms: N_19  and  C_20 
ROOT
ATOM      1  N   UNL d   1       4.858  -0.553 -14.090  0.00  0.00    -0.191 NA
ATOM      2  C   UNL d   1       5.521  -0.158 -14.949  0.00  0.00     0.104 C 
ATOM      3  C   UNL d   1       6.361   0.348 -16.035  0.00  0.00     0.102 A 
ATOM      4  C   UNL d   1       6.238  -0.272 -17.295  0.00  0.00     0.015 A 
ATOM      5  C   UNL d   1       7.048   0.155 -18.358  0.00  0.00     0.021 A 
ATOM      6  C   UNL d   1       7.961   1.197 -18.118  0.00  0.00     0.101 A 
ATOM      7  N   UNL d   1       8.086   1.811 -16.922  0.00  0.00    -0.227 NA
ATOM      8  C   UNL d   1       7.309   1.410 -15.883  0.00  0.00     0.150 A 
ENDROOT
BRANCH   8   9
ATOM      9  N   UNL d   1       7.492   2.105 -14.673  0.00  0.00    -0.329 N 
ATOM     10  C   UNL d   1       6.388   2.515 -13.811  0.00  0.00     0.138 C 
ATOM     11  C   UNL d   1       6.463   4.002 -13.494  0.00  0.00     0.274 C 
ATOM     12  N   UNL d   1       7.766   4.327 -12.908  0.00  0.00     0.141 N 
ATOM     13  C   UNL d   1       8.816   4.033 -13.900  0.00  0.00     0.274 C 
ATOM     14  C   UNL d   1       8.817   2.534 -14.235  0.00  0.00     0.138 C 
BRANCH  12  15
ATOM     15  C   UNL d   1       7.748   5.741 -12.546  0.00  0.00     0.253 C 
BRANCH  15  16
ATOM     16  C   UNL d   1       8.950   6.133 -11.681  0.00  0.00     0.071 C 
BRANCH  16  17
ATOM     17  C   UNL d   1       8.719   5.800 -10.198  0.00  0.00     0.253 C 
BRANCH  17  18
ATOM     18  N   UNL d   1       9.871   6.179  -9.389  0.00  0.00     0.141 N 
ATOM     19  C   UNL d   1       9.626   5.715  -8.025  0.00  0.00     0.274 C 
ATOM     20  C   UNL d   1      10.830   6.047  -7.120  0.00  0.00     0.137 C 
ATOM     21  N   UNL d   1      11.132   7.466  -7.169  0.00  0.00    -0.344 N 
ATOM     22  C   UNL d   1      11.268   8.014  -8.511  0.00  0.00     0.137 C 
ATOM     23  C   UNL d   1      10.045   7.638  -9.362  0.00  0.00     0.274 C 
BRANCH  21  24
ATOM     24  C   UNL d   1      11.252   8.229  -5.996  0.00  0.00     0.056 A 
ATOM     25  C   UNL d   1      11.697   7.640  -4.790  0.00  0.00     0.017 A 
ATOM     26  C   UNL d   1      11.839   8.406  -3.616  0.00  0.00     0.002 A 
ATOM     27  C   UNL d   1      11.502   9.767  -3.637  0.00  0.00     0.000 A 
ATOM     28  C   UNL d   1      11.060  10.367  -4.826  0.00  0.00     0.002 A 
ATOM     29  C   UNL d   1      10.933   9.606  -6.003  0.00  0.00     0.017 A 
ENDBRANCH  21  24
ENDBRANCH  17  18
ENDBRANCH  16  17
ENDBRANCH  15  16
ENDBRANCH  12  15
ENDBRANCH   8   9
TORSDOF 6
