REMARK  8 active torsions:
REMARK  status: ('A' for Active; 'I' for Inactive)
REMARK    1  A    between atoms: O_2  and  C_3 
REMARK    2  A    between atoms: N_15  and  C_16 
REMARK    3  A    between atoms: C_16  and  C_17 
REMARK    4  A    between atoms: C_17  and  C_18 
REMARK    5  A    between atoms: C_18  and  C_19 
REMARK    6  A    between atoms: C_19  and  N_20 
REMARK       I    between atoms: N_20  and  C_21 
REMARK    7  A    between atoms: C_21  and  C_23 
REMARK    8  A    between atoms: C_26  and  C_27 
ROOT
ATOM      1  C   UNL d   1       8.524   2.775 -14.917  0.00  0.00     0.037 C 
ENDROOT
BRANCH   1   2
ATOM      2  C   UNL d   1       9.456   2.994 -16.132  0.00  0.00     0.250 C 
BRANCH   2   3
ATOM      3  N   UNL d   1      10.302   1.828 -16.406  0.00  0.00     0.135 N 
ATOM      4  C   UNL d   1      11.272   2.068 -17.435  0.00  0.00     0.224 C 
ATOM      5  C   UNL d   1      12.513   2.918 -17.087  0.00  0.00     0.038 C 
ATOM      6  C   UNL d   1      11.738   0.656 -17.719  0.00  0.00     0.055 C 
ATOM      7  C   UNL d   1      13.509   2.949 -18.279  0.00  0.00     0.030 C 
ATOM      8  C   UNL d   1      13.611   1.657 -19.113  0.00  0.00    -0.004 A 
ATOM      9  C   UNL d   1      14.589   1.553 -20.141  0.00  0.00     0.090 A 
ATOM     10  C   UNL d   1      12.730   0.572 -18.864  0.00  0.00    -0.023 A 
ATOM     11  C   UNL d   1      14.651   0.359 -20.901  0.00  0.00     0.024 A 
ATOM     12  C   UNL d   1      13.783  -0.704 -20.646  0.00  0.00     0.002 A 
ATOM     13  C   UNL d   1      12.827  -0.607 -19.626  0.00  0.00    -0.004 A 
ATOM     14  C   UNL d   1      10.415  -0.086 -17.836  0.00  0.00     0.042 C 
ATOM     15  C   UNL d   1       9.514   0.707 -16.875  0.00  0.00     0.251 C 
BRANCH   9  16
ATOM     16  O   UNL d   1      15.437   2.632 -20.340  0.00  0.00    -0.328 OA
ATOM     17  C   UNL d   1      16.390   2.533 -21.398  0.00  0.00     0.181 C 
ENDBRANCH   9  16
ENDBRANCH   2   3
ENDBRANCH   1   2
BRANCH   1  18
ATOM     18  C   UNL d   1       9.016   3.478 -13.652  0.00  0.00     0.029 C 
BRANCH  18  19
ATOM     19  C   UNL d   1       8.960   5.022 -13.719  0.00  0.00     0.129 C 
BRANCH  19  20
ATOM     20  N   UNL d   1       9.227   5.636 -12.430  0.00  0.00    -0.234 NA
ATOM     21  C   UNL d   1       8.527   5.452 -11.293  0.00  0.00     0.275 C 
ATOM     22  O   UNL d   1       7.504   4.773 -11.245  0.00  0.00    -0.266 OA
BRANCH  21  23
ATOM     23  C   UNL d   1       9.131   6.077 -10.068  0.00  0.00     0.058 A 
ATOM     24  C   UNL d   1      10.102   7.106 -10.162  0.00  0.00     0.005 A 
ATOM     25  C   UNL d   1      10.634   7.708  -9.010  0.00  0.00     0.000 A 
ATOM     26  C   UNL d   1      10.191   7.322  -7.730  0.00  0.00     0.000 A 
ATOM     27  C   UNL d   1       9.209   6.318  -7.633  0.00  0.00     0.000 A 
ATOM     28  C   UNL d   1       8.691   5.686  -8.784  0.00  0.00     0.005 A 
BRANCH  26  29
ATOM     29  C   UNL d   1      10.742   7.958  -6.521  0.00  0.00     0.000 A 
ATOM     30  C   UNL d   1      11.173   7.178  -5.427  0.00  0.00     0.000 A 
ATOM     31  C   UNL d   1      11.722   7.785  -4.280  0.00  0.00     0.000 A 
ATOM     32  C   UNL d   1      11.823   9.190  -4.209  0.00  0.00     0.000 A 
ATOM     33  C   UNL d   1      11.387   9.975  -5.291  0.00  0.00     0.000 A 
ATOM     34  C   UNL d   1      10.857   9.361  -6.440  0.00  0.00     0.000 A 
ENDBRANCH  26  29
ENDBRANCH  21  23
ENDBRANCH  19  20
ENDBRANCH  18  19
ENDBRANCH   1  18
TORSDOF 8
