REMARK  0 active torsions:
REMARK  status: ('A' for Active; 'I' for Inactive)
ROOT
ATOM      1  C   UNL d   1      11.658   6.435  -5.953  0.00  0.00     0.000 C 
ATOM      2  C   UNL d   1      10.784   7.114  -7.026  0.00  0.00     0.007 C 
ATOM      3  C   UNL d   1      10.214   5.987  -7.936  0.00  0.00     0.000 C 
ATOM      4  C   UNL d   1       9.702   8.012  -6.406  0.00  0.00     0.008 C 
ATOM      5  C   UNL d   1      10.525   9.107  -5.684  0.00  0.00     0.001 C 
ATOM      6  C   UNL d   1      11.699   9.346  -6.652  0.00  0.00     0.007 C 
ATOM      7  C   UNL d   1      11.440   8.306  -7.773  0.00  0.00     0.051 C 
ATOM      8  C   UNL d   1      12.614   8.011  -8.707  0.00  0.00     0.007 C 
ATOM      9  C   UNL d   1      10.225   8.815  -8.536  0.00  0.00     0.150 C 
ATOM     10  O   UNL d   1      10.217   9.265  -9.677  0.00  0.00    -0.296 OA
ATOM     11  C   UNL d   1       9.019   8.623  -7.639  0.00  0.00     0.065 C 
ENDROOT
TORSDOF 0
