REMARK  9 active torsions:
REMARK  status: ('A' for Active; 'I' for Inactive)
REMARK       I    between atoms: C_2  and  N_3 
REMARK    1  A    between atoms: C_2  and  C_24 
REMARK    2  A    between atoms: N_3  and  C_4 
REMARK    3  A    between atoms: C_4  and  C_5 
REMARK    4  A    between atoms: C_5  and  C_6 
REMARK    5  A    between atoms: C_6  and  C_7 
REMARK    6  A    between atoms: C_7  and  N_8 
REMARK    7  A    between atoms: N_11  and  C_12 
REMARK    8  A    between atoms: C_15  and  C_16 
REMARK    9  A    between atoms: C_27  and  C_28 
ROOT
ATOM      1  C   UNL d   1       7.675   5.747 -12.140  0.00  0.00     0.037 C 
ENDROOT
BRANCH   1   2
ATOM      2  C   UNL d   1       7.697   7.226 -12.545  0.00  0.00     0.029 C 
BRANCH   2   3
ATOM      3  C   UNL d   1       9.062   7.918 -12.364  0.00  0.00     0.129 C 
BRANCH   3   4
ATOM      4  N   UNL d   1       9.521   8.024 -10.984  0.00  0.00    -0.234 NA
ATOM      5  C   UNL d   1       9.864   6.990 -10.198  0.00  0.00     0.275 C 
ATOM      6  O   UNL d   1       9.864   5.815 -10.552  0.00  0.00    -0.266 OA
BRANCH   5   7
ATOM      7  C   UNL d   1      10.256   7.349  -8.806  0.00  0.00     0.058 A 
ATOM      8  C   UNL d   1       9.810   6.543  -7.740  0.00  0.00     0.005 A 
ATOM      9  C   UNL d   1      10.188   6.832  -6.419  0.00  0.00     0.000 A 
ATOM     10  C   UNL d   1      11.043   7.926  -6.155  0.00  0.00     0.001 A 
ATOM     11  C   UNL d   1      11.493   8.743  -7.217  0.00  0.00     0.000 A 
ATOM     12  C   UNL d   1      11.102   8.447  -8.538  0.00  0.00     0.005 A 
BRANCH  10  13
ATOM     13  C   UNL d   1      11.462   8.178  -4.789  0.00  0.00     0.007 A 
ATOM     14  C   UNL d   1      11.860   7.257  -3.849  0.00  0.00     0.035 A 
ATOM     15  S   UNL d   1      12.345   8.014  -2.363  0.00  0.00    -0.086 SA
ATOM     16  C   UNL d   1      11.911   9.577  -2.986  0.00  0.00     0.035 A 
ATOM     17  C   UNL d   1      11.496   9.511  -4.285  0.00  0.00     0.007 A 
ENDBRANCH  10  13
ENDBRANCH   5   7
ENDBRANCH   3   4
ENDBRANCH   2   3
ENDBRANCH   1   2
BRANCH   1  18
ATOM     18  C   UNL d   1       6.369   5.017 -12.477  0.00  0.00     0.251 C 
BRANCH  18  19
ATOM     19  N   UNL d   1       6.612   3.600 -12.749  0.00  0.00     0.141 N 
ATOM     20  C   UNL d   1       5.331   2.904 -12.793  0.00  0.00     0.274 C 
ATOM     21  C   UNL d   1       5.509   1.390 -13.089  0.00  0.00     0.137 C 
ATOM     22  N   UNL d   1       6.302   1.195 -14.299  0.00  0.00    -0.344 N 
ATOM     23  C   UNL d   1       7.550   1.945 -14.349  0.00  0.00     0.137 C 
ATOM     24  C   UNL d   1       7.278   3.429 -14.044  0.00  0.00     0.274 C 
BRANCH  22  25
ATOM     25  C   UNL d   1       5.864   0.407 -15.376  0.00  0.00     0.056 A 
ATOM     26  C   UNL d   1       5.026  -0.715 -15.171  0.00  0.00     0.017 A 
ATOM     27  C   UNL d   1       4.600  -1.495 -16.265  0.00  0.00     0.005 A 
ATOM     28  C   UNL d   1       4.999  -1.167 -17.576  0.00  0.00     0.072 A 
ATOM     29  C   UNL d   1       5.840  -0.057 -17.779  0.00  0.00     0.005 A 
ATOM     30  C   UNL d   1       6.260   0.728 -16.696  0.00  0.00     0.017 A 
BRANCH  28  31
ATOM     31  C   UNL d   1       4.541  -2.008 -18.757  0.00  0.00     0.419 C 
ATOM     32  F   UNL d   1       4.732  -1.363 -19.909  0.00  0.00    -0.166 F 
ATOM     33  F   UNL d   1       5.241  -3.140 -18.780  0.00  0.00    -0.166 F 
ATOM     34  F   UNL d   1       3.247  -2.291 -18.645  0.00  0.00    -0.166 F 
ENDBRANCH  28  31
ENDBRANCH  22  25
ENDBRANCH  18  19
ENDBRANCH   1  18
TORSDOF 9
