REMARK  11 active torsions:
REMARK  status: ('A' for Active; 'I' for Inactive)
REMARK    1  A    between atoms: C_2  and  N_3 
REMARK    2  A    between atoms: N_3  and  C_4 
REMARK    3  A    between atoms: N_3  and  C_21 
REMARK    4  A    between atoms: C_4  and  C_5 
REMARK    5  A    between atoms: C_5  and  C_6 
REMARK    6  A    between atoms: C_6  and  C_7 
REMARK    7  A    between atoms: C_7  and  N_8 
REMARK       I    between atoms: N_8  and  C_9 
REMARK    8  A    between atoms: C_9  and  C_11 
REMARK    9  A    between atoms: C_21  and  C_22 
REMARK   10  A    between atoms: C_24  and  C_25 
REMARK   11  A    between atoms: C_31  and  O_32 
ROOT
ATOM      1  C   UNL d   1       9.924   3.666 -13.315  0.00  0.00     0.250 C 
ENDROOT
BRANCH   1   2
ATOM      2  N   UNL d   1      10.230   3.487 -14.742  0.00  0.00     0.137 N 
BRANCH   2   3
ATOM      3  C   UNL d   1      11.128   4.485 -15.322  0.00  0.00     0.250 C 
ATOM      4  C   UNL d   1      12.547   4.391 -14.753  0.00  0.00     0.037 C 
ENDBRANCH   2   3
BRANCH   2   5
ATOM      5  C   UNL d   1       9.038   3.376 -15.566  0.00  0.00     0.251 C 
BRANCH   5   6
ATOM      6  C   UNL d   1       8.413   2.016 -15.410  0.00  0.00     0.038 A 
ATOM      7  C   UNL d   1       8.072   1.163 -16.620  0.00  0.00     0.026 A 
ATOM      8  C   UNL d   1       9.230   0.768 -15.724  0.00  0.00     0.007 A 
BRANCH   7   9
ATOM      9  C   UNL d   1       6.794   0.346 -16.717  0.00  0.00     0.001 A 
ATOM     10  C   UNL d   1       6.208  -0.269 -15.575  0.00  0.00     0.090 A 
ATOM     11  C   UNL d   1       5.023  -1.032 -15.707  0.00  0.00     0.025 A 
ATOM     12  C   UNL d   1       4.417  -1.211 -16.961  0.00  0.00     0.013 A 
ATOM     13  C   UNL d   1       4.997  -0.616 -18.095  0.00  0.00     0.058 A 
ATOM     14  C   UNL d   1       6.174   0.157 -17.974  0.00  0.00     0.009 A 
ATOM     15 CL   UNL d   1       4.262  -0.827 -19.645  0.00  0.00    -0.082 Cl
BRANCH  10  16
ATOM     16  O   UNL d   1       6.860  -0.103 -14.376  0.00  0.00    -0.328 OA
ATOM     17  C   UNL d   1       6.322  -0.662 -13.206  0.00  0.00     0.181 C 
ENDBRANCH  10  16
ENDBRANCH   7   9
ENDBRANCH   5   6
ENDBRANCH   2   5
ENDBRANCH   1   2
BRANCH   1  18
ATOM     18  C   UNL d   1       9.278   5.025 -12.944  0.00  0.00     0.037 C 
BRANCH  18  19
ATOM     19  C   UNL d   1       9.156   5.240 -11.433  0.00  0.00     0.029 C 
BRANCH  19  20
ATOM     20  C   UNL d   1       9.216   6.736 -11.065  0.00  0.00     0.129 C 
BRANCH  20  21
ATOM     21  N   UNL d   1       9.576   6.908  -9.666  0.00  0.00    -0.234 NA
ATOM     22  C   UNL d   1      10.097   8.023  -9.130  0.00  0.00     0.275 C 
ATOM     23  O   UNL d   1      10.203   9.091  -9.732  0.00  0.00    -0.266 OA
BRANCH  22  24
ATOM     24  C   UNL d   1      10.539   7.898  -7.702  0.00  0.00     0.058 A 
ATOM     25  C   UNL d   1      10.569   9.028  -6.863  0.00  0.00     0.005 A 
ATOM     26  C   UNL d   1      11.021   8.916  -5.528  0.00  0.00     0.000 A 
ATOM     27  C   UNL d   1      11.459   7.671  -5.032  0.00  0.00     0.000 A 
ATOM     28  C   UNL d   1      11.044  10.039  -4.686  0.00  0.00     0.000 A 
ATOM     29  C   UNL d   1      11.450   6.547  -5.873  0.00  0.00     0.000 A 
ATOM     30  C   UNL d   1      11.906   7.540  -3.696  0.00  0.00     0.000 A 
ATOM     31  C   UNL d   1      11.003   6.663  -7.204  0.00  0.00     0.005 A 
ATOM     32  C   UNL d   1      11.913   8.668  -2.857  0.00  0.00     0.000 A 
ATOM     33  C   UNL d   1      11.480   9.910  -3.354  0.00  0.00     0.000 A 
ENDBRANCH  22  24
ENDBRANCH  20  21
ENDBRANCH  19  20
ENDBRANCH  18  19
ENDBRANCH   1  18
TORSDOF 11
