REMARK  6 active torsions:
REMARK  status: ('A' for Active; 'I' for Inactive)
REMARK    1  A    between atoms: C_4  and  O_5 
REMARK    2  A    between atoms: O_5  and  C_6 
REMARK    3  A    between atoms: C_6  and  C_7 
REMARK    4  A    between atoms: C_7  and  C_8 
REMARK    5  A    between atoms: C_8  and  N_9 
REMARK    6  A    between atoms: N_12  and  C_13 
ROOT
ATOM      1  N   UNL d   1      10.499   7.396  -9.235  0.00  0.00     0.141 N 
ATOM      2  C   UNL d   1      11.337   8.509  -8.793  0.00  0.00     0.274 C 
ATOM      3  C   UNL d   1      12.236   8.059  -7.629  0.00  0.00     0.137 C 
ATOM      4  N   UNL d   1      11.415   7.492  -6.560  0.00  0.00    -0.344 N 
ATOM      5  C   UNL d   1      10.519   6.432  -6.975  0.00  0.00     0.137 C 
ATOM      6  C   UNL d   1       9.650   6.937  -8.130  0.00  0.00     0.274 C 
ENDROOT
BRANCH   1   7
ATOM      7  C   UNL d   1       9.672   7.880 -10.340  0.00  0.00     0.253 C 
BRANCH   7   8
ATOM      8  C   UNL d   1       8.843   6.722 -10.925  0.00  0.00     0.068 C 
BRANCH   8   9
ATOM      9  C   UNL d   1       8.247   7.090 -12.295  0.00  0.00     0.151 C 
BRANCH   9  10
ATOM     10  O   UNL d   1       7.514   5.994 -12.837  0.00  0.00    -0.331 OA
BRANCH  10  11
ATOM     11  C   UNL d   1       8.198   4.907 -13.317  0.00  0.00     0.094 A 
ATOM     12  C   UNL d   1       7.431   3.830 -13.814  0.00  0.00     0.021 A 
ATOM     13  C   UNL d   1       8.056   2.669 -14.320  0.00  0.00    -0.009 A 
ATOM     14  C   UNL d   1       7.208   1.543 -14.870  0.00  0.00     0.032 C 
ATOM     15  C   UNL d   1       9.462   2.556 -14.291  0.00  0.00     0.054 A 
ATOM     16  C   UNL d   1      10.233   3.621 -13.791  0.00  0.00     0.013 A 
ATOM     17 CL   UNL d   1      10.260   1.133 -14.861  0.00  0.00    -0.083 Cl
ATOM     18  C   UNL d   1       9.612   4.803 -13.339  0.00  0.00     0.025 A 
ENDBRANCH  10  11
ENDBRANCH   9  10
ENDBRANCH   8   9
ENDBRANCH   7   8
ENDBRANCH   1   7
BRANCH   4  19
ATOM     19  C   UNL d   1      11.565   7.845  -5.223  0.00  0.00     0.056 A 
ATOM     20  C   UNL d   1      11.672   6.854  -4.226  0.00  0.00     0.017 A 
ATOM     21  C   UNL d   1      11.858   7.216  -2.871  0.00  0.00     0.002 A 
ATOM     22  C   UNL d   1      11.898   8.573  -2.517  0.00  0.00     0.000 A 
ATOM     23  C   UNL d   1      11.807   9.569  -3.507  0.00  0.00     0.002 A 
ATOM     24  C   UNL d   1      11.659   9.200  -4.866  0.00  0.00     0.017 A 
ENDBRANCH   4  19
TORSDOF 6
