REMARK  8 active torsions:
REMARK  status: ('A' for Active; 'I' for Inactive)
REMARK    1  A    between atoms: O_2  and  C_3 
REMARK    2  A    between atoms: C_8  and  N_9 
REMARK    3  A    between atoms: N_12  and  C_13 
REMARK    4  A    between atoms: C_13  and  C_14 
REMARK    5  A    between atoms: C_14  and  C_15 
REMARK    6  A    between atoms: C_15  and  C_16 
REMARK    7  A    between atoms: C_16  and  N_17 
REMARK       I    between atoms: N_17  and  C_18 
REMARK    8  A    between atoms: C_18  and  C_20 
ROOT
ATOM      1  C   UNL d   1      10.019   7.124  -9.071  0.00  0.00     0.087 A 
ATOM      2  C   UNL d   1      10.171   6.442  -7.885  0.00  0.00     0.012 A 
ATOM      3  C   UNL d   1      10.738   7.275  -6.845  0.00  0.00     0.007 A 
ATOM      4  C   UNL d   1      11.060   6.987  -5.495  0.00  0.00     0.011 A 
ATOM      5  C   UNL d   1      11.637   7.952  -4.644  0.00  0.00     0.068 A 
ATOM      6  C   UNL d   1      11.989   7.599  -3.278  0.00  0.00     0.101 C 
ATOM      7  N   UNL d   1      12.264   7.319  -2.192  0.00  0.00    -0.191 NA
ATOM      8  C   UNL d   1      11.887   9.249  -5.122  0.00  0.00     0.011 A 
ATOM      9  C   UNL d   1      11.574   9.575  -6.454  0.00  0.00     0.007 A 
ATOM     10  C   UNL d   1      11.014   8.601  -7.303  0.00  0.00     0.030 A 
ATOM     11  S   UNL d   1      10.569   8.779  -8.998  0.00  0.00    -0.082 SA
ENDROOT
BRANCH   1  12
ATOM     12  C   UNL d   1       9.463   6.676 -10.367  0.00  0.00     0.281 C 
ATOM     13  N   UNL d   1       8.934   5.440 -10.367  0.00  0.00    -0.234 NA
ATOM     14  O   UNL d   1       9.463   7.397 -11.365  0.00  0.00    -0.265 OA
BRANCH  13  15
ATOM     15  C   UNL d   1       8.198   4.865 -11.487  0.00  0.00     0.129 C 
BRANCH  15  16
ATOM     16  C   UNL d   1       9.130   4.059 -12.406  0.00  0.00     0.029 C 
BRANCH  16  17
ATOM     17  C   UNL d   1       8.411   3.550 -13.661  0.00  0.00     0.037 C 
BRANCH  17  18
ATOM     18  C   UNL d   1       9.041   2.267 -14.248  0.00  0.00     0.251 C 
BRANCH  18  19
ATOM     19  N   UNL d   1       8.575   1.978 -15.603  0.00  0.00     0.141 N 
ATOM     20  C   UNL d   1       7.131   1.709 -15.621  0.00  0.00     0.274 C 
ATOM     21  C   UNL d   1       6.662   1.467 -17.065  0.00  0.00     0.137 C 
ATOM     22  N   UNL d   1       7.404   0.369 -17.658  0.00  0.00    -0.343 N 
ATOM     23  C   UNL d   1       8.855   0.471 -17.557  0.00  0.00     0.137 C 
ATOM     24  C   UNL d   1       9.269   0.781 -16.097  0.00  0.00     0.274 C 
BRANCH  22  25
ATOM     25  C   UNL d   1       6.764  -0.785 -18.153  0.00  0.00     0.079 A 
ATOM     26  C   UNL d   1       5.684  -1.398 -17.460  0.00  0.00     0.110 A 
ATOM     27  C   UNL d   1       5.042  -2.522 -18.038  0.00  0.00     0.026 A 
ATOM     28  C   UNL d   1       5.468  -3.038 -19.276  0.00  0.00     0.002 A 
ATOM     29  C   UNL d   1       6.545  -2.441 -19.948  0.00  0.00     0.002 A 
ATOM     30  C   UNL d   1       7.190  -1.320 -19.388  0.00  0.00     0.019 A 
BRANCH  26  31
ATOM     31  O   UNL d   1       5.322  -0.878 -16.231  0.00  0.00    -0.327 OA
ATOM     32  C   UNL d   1       4.182  -1.404 -15.577  0.00  0.00     0.181 C 
ENDBRANCH  26  31
ENDBRANCH  22  25
ENDBRANCH  18  19
ENDBRANCH  17  18
ENDBRANCH  16  17
ENDBRANCH  15  16
ENDBRANCH  13  15
ENDBRANCH   1  12
TORSDOF 8
