REMARK  6 active torsions:
REMARK  status: ('A' for Active; 'I' for Inactive)
REMARK    1  A    between atoms: C_5  and  N_6 
REMARK    2  A    between atoms: N_9  and  C_10 
REMARK    3  A    between atoms: C_10  and  C_11 
REMARK    4  A    between atoms: C_11  and  C_12 
REMARK    5  A    between atoms: C_15  and  N_16 
REMARK       I    between atoms: N_16  and  C_17 
REMARK    6  A    between atoms: C_17  and  C_19 
ROOT
ATOM      1  C   UNL d   1       9.404   4.398 -11.837  0.00  0.00     0.250 C 
ENDROOT
BRANCH   1   2
ATOM      2  N   UNL d   1       8.683   4.050 -13.062  0.00  0.00     0.141 N 
ATOM      3  C   UNL d   1       7.243   3.918 -12.735  0.00  0.00     0.274 C 
ATOM      4  C   UNL d   1       6.461   3.469 -13.989  0.00  0.00     0.138 C 
ATOM      5  N   UNL d   1       7.061   2.278 -14.575  0.00  0.00    -0.330 N 
ATOM      6  C   UNL d   1       8.483   2.335 -14.861  0.00  0.00     0.138 C 
ATOM      7  C   UNL d   1       9.218   2.766 -13.584  0.00  0.00     0.274 C 
BRANCH   5   8
ATOM      8  C   UNL d   1       6.289   1.140 -14.894  0.00  0.00     0.142 A 
ATOM      9  N   UNL d   1       5.310   0.799 -14.014  0.00  0.00    -0.228 NA
ATOM     10  C   UNL d   1       4.459  -0.195 -14.300  0.00  0.00     0.098 A 
ATOM     11  C   UNL d   1       4.586  -0.957 -15.466  0.00  0.00     0.020 A 
ATOM     12  C   UNL d   1       3.717  -2.095 -15.742  0.00  0.00     0.035 C 
ATOM     13  C   UNL d   1       5.622  -0.653 -16.336  0.00  0.00     0.101 A 
ATOM     14  C   UNL d   1       6.503   0.405 -16.093  0.00  0.00     0.058 A 
ATOM     15  O   UNL d   1       5.939  -1.293 -17.522  0.00  0.00    -0.305 OA
ATOM     16  C   UNL d   1       7.391   0.426 -17.222  0.00  0.00     0.032 A 
ATOM     17  C   UNL d   1       7.016  -0.627 -18.028  0.00  0.00     0.123 A 
ENDBRANCH   5   8
ENDBRANCH   1   2
BRANCH   1  18
ATOM     18  C   UNL d   1       9.238   5.884 -11.479  0.00  0.00     0.035 C 
BRANCH  18  19
ATOM     19  C   UNL d   1       9.703   6.247 -10.057  0.00  0.00     0.002 C 
ATOM     20  C   UNL d   1       8.711   5.754  -8.977  0.00  0.00     0.002 C 
ATOM     21  C   UNL d   1       9.153   6.178  -7.575  0.00  0.00     0.024 C 
ATOM     22  C   UNL d   1       9.395   7.697  -7.471  0.00  0.00     0.106 C 
ATOM     23  C   UNL d   1      10.362   8.197  -8.561  0.00  0.00     0.024 C 
ATOM     24  C   UNL d   1       9.928   7.769  -9.955  0.00  0.00     0.002 C 
BRANCH  22  25
ATOM     25  N   UNL d   1       9.903   8.054  -6.150  0.00  0.00    -0.240 NA
ATOM     26  C   UNL d   1      11.062   7.626  -5.629  0.00  0.00     0.251 C 
ATOM     27  O   UNL d   1      11.838   6.863  -6.214  0.00  0.00    -0.271 OA
BRANCH  26  28
ATOM     28  C   UNL d   1      11.373   8.052  -4.191  0.00  0.00     0.086 C 
ATOM     29  C   UNL d   1      11.413   6.785  -3.303  0.00  0.00     0.042 C 
ATOM     30  C   UNL d   1      11.796   7.139  -1.870  0.00  0.00     0.143 C 
ATOM     31  O   UNL d   1      12.985   7.909  -1.861  0.00  0.00    -0.354 OA
ATOM     32  C   UNL d   1      12.896   9.120  -2.576  0.00  0.00     0.143 C 
ATOM     33  C   UNL d   1      12.676   8.817  -4.059  0.00  0.00     0.042 C 
ENDBRANCH  26  28
ENDBRANCH  22  25
ENDBRANCH  18  19
ENDBRANCH   1  18
TORSDOF 6
