REMARK  8 active torsions:
REMARK  status: ('A' for Active; 'I' for Inactive)
REMARK    1  A    between atoms: C_7  and  N_8 
REMARK    2  A    between atoms: N_11  and  C_12 
REMARK    3  A    between atoms: C_12  and  C_13 
REMARK    4  A    between atoms: C_13  and  C_14 
REMARK    5  A    between atoms: C_14  and  C_15 
REMARK    6  A    between atoms: C_15  and  C_16 
REMARK    7  A    between atoms: C_16  and  C_17 
REMARK       I    between atoms: C_17  and  N_19 
REMARK    8  A    between atoms: N_19  and  C_20 
ROOT
ATOM      1  C   UNL d   1       8.913   4.044 -12.370  0.00  0.00     0.003 C 
ENDROOT
BRANCH   1   2
ATOM      2  C   UNL d   1       9.212   5.295 -11.530  0.00  0.00     0.035 C 
BRANCH   2   3
ATOM      3  C   UNL d   1       8.890   5.078 -10.040  0.00  0.00     0.250 C 
BRANCH   3   4
ATOM      4  N   UNL d   1       9.217   6.242  -9.236  0.00  0.00     0.141 N 
ATOM      5  C   UNL d   1       8.599   6.097  -7.910  0.00  0.00     0.274 C 
ATOM      6  C   UNL d   1       8.870   7.336  -7.033  0.00  0.00     0.137 C 
ATOM      7  N   UNL d   1      10.295   7.586  -6.955  0.00  0.00    -0.344 N 
ATOM      8  C   UNL d   1      10.990   7.640  -8.227  0.00  0.00     0.137 C 
ATOM      9  C   UNL d   1      10.658   6.393  -9.046  0.00  0.00     0.274 C 
BRANCH   7  10
ATOM     10  C   UNL d   1      10.970   7.777  -5.740  0.00  0.00     0.052 A 
ATOM     11  C   UNL d   1      11.577   9.011  -5.383  0.00  0.00    -0.006 A 
ATOM     12  C   UNL d   1      11.459  10.202  -6.312  0.00  0.00     0.033 C 
ATOM     13  C   UNL d   1      12.265   9.116  -4.158  0.00  0.00    -0.003 A 
ATOM     14  C   UNL d   1      12.363   8.035  -3.272  0.00  0.00    -0.000 A 
ATOM     15  C   UNL d   1      11.784   6.809  -3.619  0.00  0.00     0.002 A 
ATOM     16  C   UNL d   1      11.087   6.696  -4.834  0.00  0.00     0.017 A 
ENDBRANCH   7  10
ENDBRANCH   3   4
ENDBRANCH   2   3
ENDBRANCH   1   2
BRANCH   1  17
ATOM     17  C   UNL d   1       9.307   4.199 -13.842  0.00  0.00     0.010 C 
BRANCH  17  18
ATOM     18  C   UNL d   1      10.773   3.779 -14.103  0.00  0.00     0.090 C 
BRANCH  18  19
ATOM     19  C   UNL d   1      11.284   4.360 -15.409  0.00  0.00     0.252 C 
ATOM     20  O   UNL d   1      11.214   5.578 -15.557  0.00  0.00    -0.271 OA
ATOM     21  N   UNL d   1      11.766   3.507 -16.334  0.00  0.00    -0.235 NA
BRANCH  21  22
ATOM     22  C   UNL d   1      12.147   3.815 -17.721  0.00  0.00     0.128 C 
ATOM     23  C   UNL d   1      12.950   5.105 -17.869  0.00  0.00    -0.004 A 
ATOM     24  C   UNL d   1      12.362   6.268 -18.427  0.00  0.00    -0.024 A 
ATOM     25  C   UNL d   1      14.249   5.170 -17.316  0.00  0.00    -0.003 A 
ATOM     26  C   UNL d   1      10.948   6.258 -19.019  0.00  0.00     0.026 C 
ATOM     27  C   UNL d   1      13.094   7.478 -18.435  0.00  0.00    -0.004 A 
ATOM     28  C   UNL d   1      10.091   5.037 -18.633  0.00  0.00     0.007 C 
ATOM     29  C   UNL d   1      10.925   3.750 -18.662  0.00  0.00     0.029 C 
ATOM     30  C   UNL d   1      14.392   7.532 -17.885  0.00  0.00    -0.000 A 
ATOM     31  C   UNL d   1      14.971   6.379 -17.330  0.00  0.00    -0.000 A 
ENDBRANCH  21  22
ENDBRANCH  18  19
ENDBRANCH  17  18
ENDBRANCH   1  17
TORSDOF 8
