REMARK  7 active torsions:
REMARK  status: ('A' for Active; 'I' for Inactive)
REMARK    1  A    between atoms: N_12  and  C_13 
REMARK    2  A    between atoms: C_13  and  C_14 
REMARK    3  A    between atoms: C_14  and  C_15 
REMARK    4  A    between atoms: C_15  and  C_16 
REMARK    5  A    between atoms: C_16  and  C_17 
REMARK    6  A    between atoms: C_17  and  N_18 
REMARK    7  A    between atoms: C_21  and  C_22 
ROOT
ATOM      1  C   UNL d   1       8.530   6.108 -11.213  0.00  0.00     0.251 C 
ENDROOT
BRANCH   1   2
ATOM      2  C   UNL d   1       9.769   6.973 -11.434  0.00  0.00     0.035 C 
BRANCH   2   3
ATOM      3  C   UNL d   1       9.847   8.233 -10.554  0.00  0.00     0.004 C 
BRANCH   3   4
ATOM      4  C   UNL d   1      10.140   7.824  -9.099  0.00  0.00     0.025 C 
BRANCH   4   5
ATOM      5  C   UNL d   1      10.367   9.000  -8.124  0.00  0.00     0.112 C 
BRANCH   5   6
ATOM      6  N   UNL d   1      10.807   8.600  -6.766  0.00  0.00    -0.263 N 
ATOM      7  C   UNL d   1      11.037   7.335  -6.356  0.00  0.00     0.263 A 
ATOM      8  O   UNL d   1      10.980   6.290  -7.005  0.00  0.00    -0.267 OA
ATOM      9  C   UNL d   1      11.460   7.421  -4.936  0.00  0.00     0.063 A 
ATOM     10  C   UNL d   1      11.476   8.735  -4.582  0.00  0.00     0.088 A 
ATOM     11  C   UNL d   1      11.861   6.394  -4.074  0.00  0.00     0.005 A 
ATOM     12  C   UNL d   1      11.864   9.118  -3.285  0.00  0.00     0.145 A 
ATOM     13  C   UNL d   1      11.094   9.510  -5.786  0.00  0.00     0.265 A 
ATOM     14  C   UNL d   1      12.265   8.118  -2.382  0.00  0.00     0.030 A 
ATOM     15  F   UNL d   1      11.845  10.393  -2.874  0.00  0.00    -0.204 F 
ATOM     16  C   UNL d   1      12.266   6.755  -2.764  0.00  0.00     0.003 A 
ATOM     17  O   UNL d   1      11.095  10.734  -5.883  0.00  0.00    -0.267 OA
ENDBRANCH   5   6
ENDBRANCH   4   5
ENDBRANCH   3   4
ENDBRANCH   2   3
ENDBRANCH   1   2
BRANCH   1  18
ATOM     18  N   UNL d   1       8.239   5.250 -12.357  0.00  0.00     0.142 N 
ATOM     19  C   UNL d   1       7.013   4.506 -12.113  0.00  0.00     0.255 C 
ATOM     20  C   UNL d   1       6.590   3.779 -13.403  0.00  0.00     0.061 C 
ATOM     21  C   UNL d   1       7.736   2.985 -14.021  0.00  0.00    -0.021 C 
ATOM     22  C   UNL d   1       8.992   3.284 -13.684  0.00  0.00     0.005 C 
ATOM     23  C   UNL d   1       9.353   4.349 -12.653  0.00  0.00     0.276 C 
BRANCH  21  24
ATOM     24  C   UNL d   1       7.469   1.978 -15.066  0.00  0.00     0.017 A 
ATOM     25  C   UNL d   1       6.449   0.968 -15.035  0.00  0.00     0.021 A 
ATOM     26  C   UNL d   1       6.545   0.262 -16.272  0.00  0.00     0.082 A 
ATOM     27  C   UNL d   1       5.430   0.559 -14.132  0.00  0.00     0.031 A 
ATOM     28  N   UNL d   1       7.615   0.817 -16.958  0.00  0.00    -0.244 NA
ATOM     29  C   UNL d   1       5.660  -0.784 -16.598  0.00  0.00     0.021 A 
ATOM     30  C   UNL d   1       8.192   1.845 -16.230  0.00  0.00     0.099 A 
ATOM     31  C   UNL d   1       4.643  -1.143 -15.695  0.00  0.00     0.031 A 
ATOM     32  C   UNL d   1       4.520  -0.460 -14.473  0.00  0.00     0.140 A 
ATOM     33  F   UNL d   1       3.508  -0.772 -13.632  0.00  0.00    -0.204 F 
ENDBRANCH  21  24
ENDBRANCH   1  18
TORSDOF 7
