REMARK  10 active torsions:
REMARK  status: ('A' for Active; 'I' for Inactive)
REMARK    1  A    between atoms: C_6  and  C_7 
REMARK    2  A    between atoms: N_9  and  C_10 
REMARK    3  A    between atoms: C_10  and  C_11 
REMARK    4  A    between atoms: C_11  and  C_12 
REMARK    5  A    between atoms: C_12  and  C_13 
REMARK    6  A    between atoms: N_15  and  C_16 
REMARK    7  A    between atoms: C_16  and  C_17 
REMARK    8  A    between atoms: C_17  and  C_18 
REMARK    9  A    between atoms: C_18  and  N_19 
REMARK   10  A    between atoms: N_22  and  C_23 
ROOT
ATOM      1  C   UNL d   1       6.329  -3.106 -19.875  0.00  0.00     0.101 C 
ATOM      2  C   UNL d   1       5.193  -2.358 -19.780  0.00  0.00     0.113 C 
ATOM      3  N   UNL d   1       4.662  -2.773 -18.580  0.00  0.00    -0.231 N 
ATOM      4  N   UNL d   1       5.381  -3.782 -18.031  0.00  0.00    -0.064 NA
ATOM      5  N   UNL d   1       6.449  -3.907 -18.746  0.00  0.00    -0.133 NA
ENDROOT
BRANCH   1   6
ATOM      6  C   UNL d   1       7.353  -3.141 -20.959  0.00  0.00     0.051 C 
BRANCH   6   7
ATOM      7  C   UNL d   1       8.471  -2.120 -20.741  0.00  0.00     0.042 C 
BRANCH   7   8
ATOM      8  C   UNL d   1       7.977  -0.668 -20.834  0.00  0.00     0.251 C 
BRANCH   8   9
ATOM      9  N   UNL d   1       9.047   0.310 -20.641  0.00  0.00     0.138 N 
ATOM     10  C   UNL d   1       9.419   0.379 -19.219  0.00  0.00     0.259 C 
ATOM     11  C   UNL d   1      10.755   1.115 -18.897  0.00  0.00     0.078 C 
ATOM     12  C   UNL d   1      10.569   2.631 -18.938  0.00  0.00    -0.018 A 
ATOM     13  C   UNL d   1      10.080   3.310 -20.094  0.00  0.00    -0.022 A 
ATOM     14  C   UNL d   1      10.885   3.365 -17.757  0.00  0.00     0.025 A 
ATOM     15  C   UNL d   1       9.643   2.623 -21.400  0.00  0.00     0.061 C 
ATOM     16  C   UNL d   1       9.971   4.723 -20.028  0.00  0.00     0.025 A 
ATOM     17  C   UNL d   1       8.545   1.595 -21.169  0.00  0.00     0.255 C 
ATOM     18  C   UNL d   1      10.286   5.449 -18.860  0.00  0.00     0.156 A 
ATOM     19  O   UNL d   1      10.130   6.809 -18.858  0.00  0.00    -0.188 OA
ATOM     20  C   UNL d   1      10.743   4.772 -17.716  0.00  0.00     0.156 A 
ATOM     21  O   UNL d   1      11.079   5.463 -16.591  0.00  0.00    -0.188 OA
BRANCH  11  22
ATOM     22  C   UNL d   1      12.012   0.614 -19.640  0.00  0.00    -0.017 C 
ATOM     23  C   UNL d   1      12.783  -0.458 -19.081  0.00  0.00    -0.004 C 
ATOM     24  C   UNL d   1      13.959  -0.877 -19.738  0.00  0.00    -0.001 C 
ATOM     25  C   UNL d   1      14.352  -0.323 -20.974  0.00  0.00    -0.004 C 
ATOM     26  C   UNL d   1      13.583   0.742 -21.516  0.00  0.00    -0.022 C 
ATOM     27  C   UNL d   1      13.961   1.408 -22.823  0.00  0.00     0.031 C 
ATOM     28  C   UNL d   1      12.507   1.253 -20.794  0.00  0.00    -0.008 C 
ENDBRANCH  11  22
ENDBRANCH   8   9
ENDBRANCH   7   8
ENDBRANCH   6   7
ENDBRANCH   1   6
BRANCH   3  29
ATOM     29  C   UNL d   1       3.460  -2.292 -17.922  0.00  0.00     0.131 C 
BRANCH  29  30
ATOM     30  C   UNL d   1       3.700  -1.494 -16.623  0.00  0.00     0.062 C 
BRANCH  30  31
ATOM     31  C   UNL d   1       5.061  -1.716 -15.894  0.00  0.00     0.253 C 
BRANCH  31  32
ATOM     32  N   UNL d   1       5.404  -0.718 -14.874  0.00  0.00     0.141 N 
ATOM     33  C   UNL d   1       5.307   0.613 -15.438  0.00  0.00     0.274 C 
ATOM     34  C   UNL d   1       5.677   1.651 -14.386  0.00  0.00     0.138 C 
ATOM     35  N   UNL d   1       7.046   1.464 -14.043  0.00  0.00    -0.329 N 
ATOM     36  C   UNL d   1       7.313   0.135 -13.556  0.00  0.00     0.138 C 
ATOM     37  C   UNL d   1       6.824  -0.863 -14.568  0.00  0.00     0.274 C 
BRANCH  35  38
ATOM     38  C   UNL d   1       7.957   2.501 -14.085  0.00  0.00     0.148 A 
ATOM     39  C   UNL d   1       7.665   3.823 -13.535  0.00  0.00     0.042 A 
ATOM     40  C   UNL d   1       8.850   4.608 -13.629  0.00  0.00     0.050 A 
ATOM     41  C   UNL d   1       6.571   4.429 -12.874  0.00  0.00     0.004 A 
ATOM     42  S   UNL d   1      10.114   3.608 -14.321  0.00  0.00     0.015 SA
ATOM     43  C   UNL d   1       8.910   5.931 -13.169  0.00  0.00     0.008 A 
ATOM     44  N   UNL d   1       9.162   2.263 -14.547  0.00  0.00    -0.192 NA
ATOM     45  C   UNL d   1       7.788   6.531 -12.576  0.00  0.00     0.001 A 
ATOM     46  C   UNL d   1       6.617   5.763 -12.416  0.00  0.00     0.000 A 
ENDBRANCH  35  38
ENDBRANCH  31  32
ENDBRANCH  30  31
ENDBRANCH  29  30
ENDBRANCH   3  29
TORSDOF 10
