REMARK  11 active torsions:
REMARK  status: ('A' for Active; 'I' for Inactive)
REMARK    1  A    between atoms: O_2  and  C_3 
REMARK    2  A    between atoms: C_8  and  C_9 
REMARK    3  A    between atoms: C_11  and  C_12 
REMARK    4  A    between atoms: C_12  and  N_13 
REMARK    5  A    between atoms: N_13  and  C_14 
REMARK    6  A    between atoms: C_14  and  C_15 
REMARK    7  A    between atoms: C_15  and  C_16 
REMARK    8  A    between atoms: C_16  and  C_17 
REMARK    9  A    between atoms: C_17  and  C_18 
REMARK   10  A    between atoms: C_18  and  O_19 
REMARK   11  A    between atoms: O_19  and  C_20 
ROOT
ATOM      1  C   UNL d   1       5.587   3.856 -12.240  0.00  0.00     0.038 C 
ENDROOT
BRANCH   1   2
ATOM      2  C   UNL d   1       5.903   2.922 -13.398  0.00  0.00     0.290 C 
BRANCH   2   3
ATOM      3  N   UNL d   1       5.295   1.635 -13.126  0.00  0.00     0.339 N 
BRANCH   3   4
ATOM      4  C   UNL d   1       5.473   0.849 -14.327  0.00  0.00     0.290 C 
BRANCH   4   5
ATOM      5  C   UNL d   1       5.159  -0.606 -14.086  0.00  0.00     0.041 A 
ATOM      6  C   UNL d   1       5.400  -1.600 -15.218  0.00  0.00     0.026 A 
ATOM      7  C   UNL d   1       6.289  -1.590 -13.997  0.00  0.00     0.007 A 
BRANCH   6   8
ATOM      8  C   UNL d   1       5.876  -1.137 -16.580  0.00  0.00    -0.000 A 
ATOM      9  C   UNL d   1       5.208  -1.531 -17.767  0.00  0.00     0.090 A 
ATOM     10  C   UNL d   1       5.678  -1.038 -19.019  0.00  0.00     0.024 A 
ATOM     11  C   UNL d   1       6.780  -0.152 -19.087  0.00  0.00     0.002 A 
ATOM     12  C   UNL d   1       7.451   0.207 -17.913  0.00  0.00    -0.000 A 
ATOM     13  C   UNL d   1       7.026  -0.320 -16.685  0.00  0.00    -0.002 A 
BRANCH   9  14
ATOM     14  O   UNL d   1       4.132  -2.383 -17.645  0.00  0.00    -0.328 OA
ATOM     15  C   UNL d   1       3.461  -2.792 -18.823  0.00  0.00     0.181 C 
ENDBRANCH   9  14
ENDBRANCH   6   8
ENDBRANCH   4   5
ENDBRANCH   3   4
ENDBRANCH   2   3
ENDBRANCH   1   2
BRANCH   1  16
ATOM     16  C   UNL d   1       6.329   5.190 -12.309  0.00  0.00     0.005 C 
BRANCH  16  17
ATOM     17  C   UNL d   1       7.840   4.982 -12.111  0.00  0.00     0.033 C 
BRANCH  17  18
ATOM     18  C   UNL d   1       8.608   6.308 -12.244  0.00  0.00     0.149 C 
BRANCH  18  19
ATOM     19  O   UNL d   1       9.850   6.224 -11.511  0.00  0.00    -0.331 OA
BRANCH  19  20
ATOM     20  C   UNL d   1       9.806   6.543 -10.172  0.00  0.00     0.096 A 
ATOM     21  C   UNL d   1      10.634   7.596  -9.732  0.00  0.00     0.043 A 
ATOM     22  C   UNL d   1      10.657   7.921  -8.358  0.00  0.00     0.087 A 
ATOM     23  C   UNL d   1       9.860   7.212  -7.446  0.00  0.00     0.018 A 
ATOM     24  N   UNL d   1      11.477   8.967  -7.856  0.00  0.00    -0.208 NA
ATOM     25  C   UNL d   1       9.040   6.173  -7.883  0.00  0.00     0.004 A 
ATOM     26  C   UNL d   1       9.912   7.586  -6.049  0.00  0.00     0.006 A 
ATOM     27  C   UNL d   1       9.023   5.816  -9.233  0.00  0.00     0.024 A 
ATOM     28  C   UNL d   1      10.698   8.596  -5.630  0.00  0.00     0.063 A 
ATOM     29  C   UNL d   1      11.531   9.348  -6.559  0.00  0.00     0.279 A 
ATOM     30  O   UNL d   1      12.246  10.283  -6.205  0.00  0.00    -0.265 OA
ENDBRANCH  19  20
ENDBRANCH  18  19
ENDBRANCH  17  18
ENDBRANCH  16  17
ENDBRANCH   1  16
TORSDOF 11
