REMARK  2 active torsions:
REMARK  status: ('A' for Active; 'I' for Inactive)
REMARK    1  A    between atoms: N_9  and  C_10 
REMARK    2  A    between atoms: C_10  and  C_11 
ROOT
ATOM      1  C   UNL d   1       8.668   6.583 -12.094  0.00  0.00     0.139 C 
ATOM      2  N   UNL d   1       8.433   5.297 -12.772  0.00  0.00    -0.246 N 
ATOM      3  C   UNL d   1       9.486   4.699 -13.407  0.00  0.00     0.283 A 
ATOM      4  O   UNL d   1      10.634   5.150 -13.430  0.00  0.00    -0.265 OA
ATOM      5  C   UNL d   1       9.145   3.443 -14.086  0.00  0.00     0.153 A 
ATOM      6  C   UNL d   1       7.904   2.905 -14.049  0.00  0.00     0.170 A 
ATOM      7  N   UNL d   1       7.851   1.706 -14.754  0.00  0.00    -0.206 NA
ATOM      8  C   UNL d   1       9.102   1.589 -15.197  0.00  0.00     0.180 A 
ATOM      9  N   UNL d   1       9.936   2.594 -14.858  0.00  0.00    -0.299 N 
ATOM     10  N   UNL d   1       6.891   3.592 -13.334  0.00  0.00    -0.263 N 
ATOM     11  C   UNL d   1       5.549   3.011 -13.261  0.00  0.00     0.137 C 
ATOM     12  C   UNL d   1       7.152   4.782 -12.706  0.00  0.00     0.335 A 
ATOM     13  O   UNL d   1       6.253   5.381 -12.109  0.00  0.00    -0.246 OA
ENDROOT
BRANCH   9  14
ATOM     14  C   UNL d   1      11.342   2.705 -15.228  0.00  0.00     0.169 C 
BRANCH  14  15
ATOM     15  C   UNL d   1      11.593   3.630 -16.435  0.00  0.00     0.259 C 
ATOM     16  O   UNL d   1      10.849   3.198 -17.521  0.00  0.00    -0.327 OA
ATOM     17  C   UNL d   1      10.461   4.368 -18.223  0.00  0.00     0.177 C 
ATOM     18  C   UNL d   1      11.020   5.522 -17.390  0.00  0.00     0.177 C 
ATOM     19  O   UNL d   1      11.195   4.918 -16.132  0.00  0.00    -0.327 OA
ENDBRANCH  14  15
ENDBRANCH   9  14
TORSDOF 2
