REMARK  7 active torsions:
REMARK  status: ('A' for Active; 'I' for Inactive)
REMARK    1  A    between atoms: C_6  and  C_7 
REMARK    2  A    between atoms: C_10  and  S_11 
REMARK    3  A    between atoms: S_11  and  C_12 
REMARK    4  A    between atoms: C_12  and  C_13 
REMARK    5  A    between atoms: C_13  and  C_14 
REMARK    6  A    between atoms: C_14  and  N_15 
REMARK    7  A    between atoms: C_19  and  C_20 
ROOT
ATOM      1  C   UNL d   1       8.710   4.775 -10.267  0.00  0.00     0.047 C 
ENDROOT
BRANCH   1   2
ATOM      2  C   UNL d   1       7.767   4.630 -11.453  0.00  0.00     0.067 C 
BRANCH   2   3
ATOM      3  S   UNL d   1       8.160   5.748 -12.833  0.00  0.00    -0.075 SA
BRANCH   3   4
ATOM      4  C   UNL d   1       9.246   4.732 -13.768  0.00  0.00     0.193 A 
ATOM      5  N   UNL d   1      10.506   5.086 -14.026  0.00  0.00    -0.122 NA
ATOM      6  N   UNL d   1      11.008   4.090 -14.822  0.00  0.00    -0.126 NA
ATOM      7  C   UNL d   1      10.022   3.196 -14.968  0.00  0.00     0.191 A 
ATOM      8  N   UNL d   1       8.876   3.567 -14.347  0.00  0.00    -0.287 N 
ATOM      9  C   UNL d   1       7.581   2.883 -14.339  0.00  0.00     0.134 C 
BRANCH   7  10
ATOM     10  C   UNL d   1      10.197   1.968 -15.744  0.00  0.00     0.151 A 
ATOM     11  C   UNL d   1      11.170   1.538 -16.614  0.00  0.00     0.087 A 
ATOM     12  C   UNL d   1      12.420   2.217 -17.072  0.00  0.00     0.054 C 
ATOM     13  N   UNL d   1      10.820   0.278 -17.081  0.00  0.00    -0.221 NA
ATOM     14  C   UNL d   1       9.668   0.009 -16.480  0.00  0.00     0.225 A 
ATOM     15  O   UNL d   1       9.233   0.998 -15.661  0.00  0.00    -0.282 OA
ENDBRANCH   7  10
ENDBRANCH   3   4
ENDBRANCH   2   3
ENDBRANCH   1   2
BRANCH   1  16
ATOM     16  C   UNL d   1       8.505   6.084  -9.576  0.00  0.00     0.251 C 
BRANCH  16  17
ATOM     17  N   UNL d   1       9.646   6.455  -8.758  0.00  0.00     0.137 N 
ATOM     18  C   UNL d   1       9.304   7.577  -7.889  0.00  0.00     0.254 C 
ATOM     19  C   UNL d   1      10.659   8.117  -7.541  0.00  0.00     0.052 A 
ATOM     20  C   UNL d   1      11.587   7.690  -8.639  0.00  0.00     0.039 A 
ATOM     21  C   UNL d   1      11.417   9.133  -8.328  0.00  0.00     0.008 A 
ATOM     22  C   UNL d   1      10.724   6.944  -9.610  0.00  0.00     0.251 C 
BRANCH  19  23
ATOM     23  C   UNL d   1      11.049   7.901  -6.133  0.00  0.00    -0.020 A 
ATOM     24  C   UNL d   1      11.201   9.001  -5.276  0.00  0.00     0.008 A 
ATOM     25  C   UNL d   1      11.661   8.759  -3.991  0.00  0.00     0.068 A 
ATOM     26  C   UNL d   1      11.976   7.482  -3.566  0.00  0.00     0.068 A 
ATOM     27 CL   UNL d   1      11.858   9.986  -2.852  0.00  0.00    -0.082 Cl
ATOM     28  C   UNL d   1      11.852   6.413  -4.418  0.00  0.00     0.012 A 
ATOM     29 CL   UNL d   1      12.574   7.189  -2.011  0.00  0.00    -0.082 Cl
ATOM     30  C   UNL d   1      11.396   6.598  -5.724  0.00  0.00    -0.003 A 
ENDBRANCH  19  23
ENDBRANCH  16  17
ENDBRANCH   1  16
TORSDOF 7
