REMARK  7 active torsions:
REMARK  status: ('A' for Active; 'I' for Inactive)
REMARK    1  A    between atoms: S_2  and  N_4 
REMARK    2  A    between atoms: S_2  and  C_23 
REMARK    3  A    between atoms: N_4  and  C_5 
REMARK    4  A    between atoms: N_8  and  C_9 
REMARK    5  A    between atoms: C_9  and  C_10 
REMARK    6  A    between atoms: C_10  and  O_11 
REMARK    7  A    between atoms: O_11  and  C_12 
ROOT
ATOM      1  C   UNL d   1       8.184   4.751 -11.665  0.00  0.00     0.151 C 
ATOM      2  C   UNL d   1       9.416   5.524 -12.140  0.00  0.00     0.063 C 
ATOM      3  C   UNL d   1       9.862   6.294 -10.903  0.00  0.00     0.253 C 
ATOM      4  N   UNL d   1       9.362   5.491  -9.802  0.00  0.00     0.142 N 
ATOM      5  C   UNL d   1       8.017   5.134 -10.210  0.00  0.00     0.275 C 
ENDROOT
BRANCH   4   6
ATOM      6  C   UNL d   1       9.316   6.260  -8.584  0.00  0.00     0.283 C 
BRANCH   6   7
ATOM      7  C   UNL d   1      10.696   6.200  -7.932  0.00  0.00     0.184 C 
BRANCH   7   8
ATOM      8  O   UNL d   1      10.626   6.391  -6.534  0.00  0.00    -0.329 OA
BRANCH   8   9
ATOM      9  C   UNL d   1      10.837   7.640  -6.060  0.00  0.00     0.090 A 
ATOM     10  C   UNL d   1      11.285   7.758  -4.710  0.00  0.00    -0.004 A 
ATOM     11  C   UNL d   1      11.468   9.020  -4.136  0.00  0.00    -0.024 A 
ATOM     12  C   UNL d   1      11.490   6.510  -3.895  0.00  0.00     0.028 C 
ATOM     13  C   UNL d   1      11.218  10.161  -4.924  0.00  0.00    -0.004 A 
ATOM     14  C   UNL d   1      11.903   9.207  -2.707  0.00  0.00     0.026 C 
ATOM     15  C   UNL d   1      10.875  10.039  -6.268  0.00  0.00     0.002 A 
ATOM     16  C   UNL d   1      10.625   8.807  -6.831  0.00  0.00     0.024 A 
ATOM     17  C   UNL d   1      12.469   7.928  -2.072  0.00  0.00     0.005 C 
ATOM     18  C   UNL d   1      11.569   6.734  -2.376  0.00  0.00     0.005 C 
ENDBRANCH   8   9
ENDBRANCH   7   8
ENDBRANCH   6   7
ENDBRANCH   4   6
BRANCH   1  19
ATOM     19  N   UNL d   1       6.989   5.065 -12.454  0.00  0.00    -0.185 NA
BRANCH  19  20
ATOM     20  S   UNL d   1       6.027   3.778 -13.127  0.00  0.00     0.281 S 
ATOM     21  O   UNL d   1       5.556   2.929 -12.028  0.00  0.00    -0.199 OA
ATOM     22  O   UNL d   1       5.060   4.391 -14.023  0.00  0.00    -0.199 OA
BRANCH  20  23
ATOM     23  C   UNL d   1       7.182   2.813 -14.110  0.00  0.00     0.105 A 
ATOM     24  C   UNL d   1       8.417   3.360 -14.516  0.00  0.00     0.015 A 
ATOM     25  C   UNL d   1       9.365   2.572 -15.182  0.00  0.00     0.030 A 
ATOM     26  C   UNL d   1       9.051   1.248 -15.529  0.00  0.00     0.140 A 
ATOM     27  C   UNL d   1       7.792   0.711 -15.175  0.00  0.00     0.030 A 
ATOM     28  F   UNL d   1       9.951   0.505 -16.219  0.00  0.00    -0.204 F 
ATOM     29  C   UNL d   1       6.857   1.485 -14.448  0.00  0.00     0.015 A 
ENDBRANCH  20  23
ENDBRANCH  19  20
ENDBRANCH   1  19
TORSDOF 7
