REMARK  6 active torsions:
REMARK  status: ('A' for Active; 'I' for Inactive)
REMARK    1  A    between atoms: C_2  and  C_3 
REMARK    2  A    between atoms: C_2  and  C_23 
REMARK    3  A    between atoms: C_3  and  C_4 
REMARK    4  A    between atoms: C_4  and  C_5 
REMARK    5  A    between atoms: C_5  and  N_6 
REMARK    6  A    between atoms: C_14  and  C_15 
ROOT
ATOM      1  N   UNL d   1       7.638   3.160 -13.668  0.00  0.00     0.137 N 
ATOM      2  C   UNL d   1       6.745   4.181 -13.120  0.00  0.00     0.253 C 
ATOM      3  C   UNL d   1       7.194   4.609 -11.716  0.00  0.00     0.071 C 
ATOM      4  C   UNL d   1       8.660   5.090 -11.697  0.00  0.00     0.157 A 
ATOM      5  C   UNL d   1       9.558   4.048 -12.390  0.00  0.00     0.071 C 
ATOM      6  C   UNL d   1       9.008   3.654 -13.773  0.00  0.00     0.253 C 
ATOM      7  O   UNL d   1       8.826   6.334 -12.387  0.00  0.00    -0.326 OA
ATOM      8  C   UNL d   1       9.399   7.227 -11.534  0.00  0.00     0.119 A 
ATOM      9  C   UNL d   1       9.560   6.806 -10.280  0.00  0.00     0.061 A 
ATOM     10  C   UNL d   1       9.121   5.427 -10.276  0.00  0.00     0.200 A 
ATOM     11  O   UNL d   1       9.147   4.629  -9.338  0.00  0.00    -0.289 OA
ENDROOT
BRANCH   1  12
ATOM     12  C   UNL d   1       7.164   2.669 -14.961  0.00  0.00     0.251 C 
BRANCH  12  13
ATOM     13  C   UNL d   1       6.802   1.185 -14.902  0.00  0.00     0.043 C 
BRANCH  13  14
ATOM     14  C   UNL d   1       6.380   0.632 -16.286  0.00  0.00     0.071 C 
BRANCH  14  15
ATOM     15  C   UNL d   1       5.481  -0.616 -16.218  0.00  0.00     0.173 C 
ATOM     16  O   UNL d   1       5.143  -1.075 -15.124  0.00  0.00    -0.291 OA
BRANCH  15  17
ATOM     17  C   UNL d   1       5.085  -1.240 -17.511  0.00  0.00     0.035 A 
ATOM     18  C   UNL d   1       5.068  -0.516 -18.727  0.00  0.00     0.005 A 
ATOM     19  C   UNL d   1       4.663  -1.143 -19.924  0.00  0.00     0.030 A 
ATOM     20  C   UNL d   1       4.266  -2.495 -19.917  0.00  0.00     0.140 A 
ATOM     21  C   UNL d   1       4.267  -3.216 -18.711  0.00  0.00     0.030 A 
ATOM     22  F   UNL d   1       3.887  -3.103 -21.065  0.00  0.00    -0.204 F 
ATOM     23  C   UNL d   1       4.671  -2.590 -17.517  0.00  0.00     0.005 A 
ENDBRANCH  15  17
ENDBRANCH  14  15
ENDBRANCH  13  14
ENDBRANCH  12  13
ENDBRANCH   1  12
BRANCH   9  24
ATOM     24  C   UNL d   1      10.185   7.543  -9.167  0.00  0.00     0.005 A 
ATOM     25  C   UNL d   1       9.461   7.749  -7.974  0.00  0.00     0.000 A 
ATOM     26  C   UNL d   1      10.034   8.492  -6.922  0.00  0.00     0.000 A 
ATOM     27  C   UNL d   1      11.337   9.000  -7.049  0.00  0.00     0.000 A 
ATOM     28  C   UNL d   1      12.062   8.778  -8.233  0.00  0.00     0.000 A 
ATOM     29  C   UNL d   1      11.485   8.060  -9.299  0.00  0.00     0.000 A 
ENDBRANCH   9  24
TORSDOF 6
