REMARK  4 active torsions:
REMARK  status: ('A' for Active; 'I' for Inactive)
REMARK    1  A    between atoms: C_4  and  C_5 
REMARK       I    between atoms: C_5  and  N_7 
REMARK    2  A    between atoms: N_7  and  C_8 
REMARK    3  A    between atoms: C_20  and  C_21 
REMARK    4  A    between atoms: C_21  and  C_22 
ROOT
ATOM      1  C   UNL d   1       9.483  -0.238 -17.907  0.00  0.00     0.255 C 
ATOM      2  C   UNL d   1       9.752  -1.705 -18.262  0.00  0.00     0.066 C 
ATOM      3  O   UNL d   1       8.197   0.080 -18.350  0.00  0.00    -0.290 OA
ATOM      4  C   UNL d   1       7.396   0.487 -17.275  0.00  0.00     0.316 C 
ATOM      5  O   UNL d   1       6.975   1.804 -17.471  0.00  0.00    -0.170 OA
ATOM      6  C   UNL d   1       6.253  -0.526 -17.131  0.00  0.00     0.160 C 
ATOM      7  C   UNL d   1       5.155  -0.429 -18.180  0.00  0.00     0.032 C 
ATOM      8  C   UNL d   1       4.022  -1.167 -17.475  0.00  0.00     0.026 C 
ATOM      9  C   UNL d   1       4.220  -0.915 -15.970  0.00  0.00     0.104 C 
ATOM     10  N   UNL d   1       5.599  -0.509 -15.823  0.00  0.00    -0.314 N 
ATOM     11  C   UNL d   1       6.151  -0.038 -14.682  0.00  0.00     0.255 C 
ATOM     12  O   UNL d   1       5.551  -0.032 -13.605  0.00  0.00    -0.270 OA
ATOM     13  C   UNL d   1       7.569   0.587 -14.761  0.00  0.00     0.171 C 
ATOM     14  N   UNL d   1       8.203   0.396 -16.102  0.00  0.00    -0.265 N 
ATOM     15  C   UNL d   1       9.369  -0.187 -16.388  0.00  0.00     0.284 C 
ATOM     16  O   UNL d   1      10.244  -0.576 -15.630  0.00  0.00    -0.267 OA
ENDROOT
BRANCH   1  17
ATOM     17  N   UNL d   1      10.496   0.668 -18.431  0.00  0.00    -0.205 NA
ATOM     18  C   UNL d   1      10.881   0.704 -19.722  0.00  0.00     0.259 C 
ATOM     19  O   UNL d   1      10.273   0.133 -20.626  0.00  0.00    -0.270 OA
BRANCH  18  20
ATOM     20  C   UNL d   1      12.190   1.450 -20.021  0.00  0.00     0.136 C 
ATOM     21  C   UNL d   1      12.251   2.007 -21.469  0.00  0.00     0.264 C 
ATOM     22  N   UNL d   1      11.297   3.106 -21.591  0.00  0.00     0.142 N 
ATOM     23  C   UNL d   1      10.983   3.437 -22.972  0.00  0.00     0.286 C 
ATOM     24  C   UNL d   1      11.587   4.263 -20.716  0.00  0.00     0.246 C 
ATOM     25  C   UNL d   1      12.233   3.863 -19.376  0.00  0.00     0.005 C 
ATOM     26  C   UNL d   1      12.393   5.430 -21.373  0.00  0.00     0.066 C 
ATOM     27  C   UNL d   1      12.509   2.585 -19.062  0.00  0.00    -0.018 C 
ATOM     28  C   UNL d   1      12.504   4.996 -18.488  0.00  0.00    -0.001 A 
ATOM     29  C   UNL d   1      12.681   6.238 -19.100  0.00  0.00     0.015 A 
ATOM     30  C   UNL d   1      12.654   4.924 -17.095  0.00  0.00    -0.000 A 
ATOM     31  C   UNL d   1      12.946   7.398 -18.392  0.00  0.00     0.081 A 
ATOM     32  C   UNL d   1      12.663   6.627 -20.465  0.00  0.00     0.001 A 
ATOM     33  C   UNL d   1      13.011   7.352 -17.001  0.00  0.00     0.019 A 
ATOM     34  N   UNL d   1      13.089   8.414 -19.275  0.00  0.00    -0.244 NA
ATOM     35  C   UNL d   1      12.862   6.105 -16.355  0.00  0.00     0.002 A 
ATOM     36  C   UNL d   1      12.911   7.961 -20.575  0.00  0.00     0.095 A 
ENDBRANCH  18  20
ENDBRANCH   1  17
BRANCH  13  37
ATOM     37  C   UNL d   1       7.527   2.116 -14.408  0.00  0.00     0.059 C 
BRANCH  37  38
ATOM     38  C   UNL d   1       8.845   2.876 -14.255  0.00  0.00    -0.020 C 
ATOM     39  C   UNL d   1       8.940   3.936 -13.276  0.00  0.00    -0.004 C 
ATOM     40  C   UNL d   1      10.174   4.651 -13.180  0.00  0.00    -0.000 C 
ATOM     41  C   UNL d   1      11.335   4.214 -13.890  0.00  0.00    -0.000 C 
ATOM     42  C   UNL d   1      11.204   3.099 -14.763  0.00  0.00    -0.000 C 
ATOM     43  C   UNL d   1       9.963   2.585 -15.059  0.00  0.00    -0.004 C 
ENDBRANCH  37  38
ENDBRANCH  13  37
TORSDOF 4
