REMARK  5 active torsions:
REMARK  status: ('A' for Active; 'I' for Inactive)
REMARK    1  A    between atoms: C_9  and  N_10 
REMARK    2  A    between atoms: N_13  and  C_14 
REMARK    3  A    between atoms: C_14  and  C_15 
REMARK    4  A    between atoms: C_15  and  C_16 
REMARK    5  A    between atoms: C_16  and  C_17 
ROOT
ATOM      1  N   UNL d   1       8.855   4.860 -11.984  0.00  0.00    -0.343 N 
ATOM      2  C   UNL d   1       9.572   5.892 -12.698  0.00  0.00     0.137 C 
ATOM      3  C   UNL d   1       9.426   7.229 -11.943  0.00  0.00     0.274 C 
ATOM      4  N   UNL d   1       9.915   7.070 -10.566  0.00  0.00     0.141 N 
ATOM      5  C   UNL d   1       9.093   6.067  -9.879  0.00  0.00     0.274 C 
ATOM      6  C   UNL d   1       9.168   4.726 -10.574  0.00  0.00     0.137 C 
ENDROOT
BRANCH   1   7
ATOM      7  C   UNL d   1       7.918   4.081 -12.647  0.00  0.00     0.080 A 
ATOM      8  C   UNL d   1       8.236   3.426 -13.875  0.00  0.00     0.128 A 
ATOM      9  O   UNL d   1       9.471   3.608 -14.461  0.00  0.00    -0.321 OA
ATOM     10  C   UNL d   1       7.293   2.570 -14.466  0.00  0.00     0.108 A 
ATOM     11  C   UNL d   1       9.947   2.606 -15.378  0.00  0.00     0.202 C 
ATOM     12  C   UNL d   1      10.729   1.543 -14.604  0.00  0.00     0.043 C 
ATOM     13  C   UNL d   1       8.829   1.967 -16.214  0.00  0.00     0.283 C 
ATOM     14  N   UNL d   1       7.596   1.961 -15.700  0.00  0.00    -0.208 NA
ATOM     15  O   UNL d   1       9.073   1.456 -17.309  0.00  0.00    -0.268 OA
ATOM     16  C   UNL d   1       6.045   2.352 -13.869  0.00  0.00     0.021 A 
ATOM     17  C   UNL d   1       5.697   3.041 -12.692  0.00  0.00     0.003 A 
ATOM     18  C   UNL d   1       6.629   3.907 -12.092  0.00  0.00     0.019 A 
ENDBRANCH   1   7
BRANCH   4  19
ATOM     19  C   UNL d   1       9.882   8.366  -9.899  0.00  0.00     0.251 C 
BRANCH  19  20
ATOM     20  C   UNL d   1      10.934   8.463  -8.794  0.00  0.00     0.040 C 
BRANCH  20  21
ATOM     21  C   UNL d   1      10.490   7.819  -7.455  0.00  0.00     0.030 C 
BRANCH  21  22
ATOM     22  C   UNL d   1      10.860   8.600  -6.239  0.00  0.00    -0.002 A 
ATOM     23  C   UNL d   1      11.326   8.095  -4.981  0.00  0.00     0.015 A 
ATOM     24  C   UNL d   1      11.504   9.205  -4.106  0.00  0.00     0.081 A 
ATOM     25  C   UNL d   1      11.606   6.814  -4.467  0.00  0.00     0.001 A 
ATOM     26  N   UNL d   1      11.101  10.310  -4.813  0.00  0.00    -0.244 NA
ATOM     27  C   UNL d   1      11.993   9.056  -2.799  0.00  0.00     0.019 A 
ATOM     28  C   UNL d   1      10.770   9.955  -6.098  0.00  0.00     0.095 A 
ATOM     29  C   UNL d   1      12.277   7.769  -2.317  0.00  0.00     0.002 A 
ATOM     30  C   UNL d   1      12.079   6.651  -3.149  0.00  0.00     0.000 A 
ENDBRANCH  21  22
ENDBRANCH  20  21
ENDBRANCH  19  20
ENDBRANCH   4  19
TORSDOF 5
