REMARK  7 active torsions:
REMARK  status: ('A' for Active; 'I' for Inactive)
REMARK    1  A    between atoms: C_6  and  N_7 
REMARK    2  A    between atoms: N_10  and  C_11 
REMARK    3  A    between atoms: C_11  and  C_12 
REMARK    4  A    between atoms: C_12  and  C_13 
REMARK    5  A    between atoms: C_13  and  C_14 
REMARK    6  A    between atoms: C_14  and  O_15 
REMARK    7  A    between atoms: O_15  and  C_16 
ROOT
ATOM      1  C   UNL d   1       8.316   5.641 -13.551  0.00  0.00     0.251 C 
ENDROOT
BRANCH   1   2
ATOM      2  N   UNL d   1       8.271   4.493 -12.641  0.00  0.00     0.141 N 
ATOM      3  C   UNL d   1       6.898   4.017 -12.392  0.00  0.00     0.274 C 
ATOM      4  C   UNL d   1       6.220   3.559 -13.698  0.00  0.00     0.137 C 
ATOM      5  N   UNL d   1       7.077   2.585 -14.382  0.00  0.00    -0.344 N 
ATOM      6  C   UNL d   1       8.494   2.918 -14.549  0.00  0.00     0.137 C 
ATOM      7  C   UNL d   1       9.090   3.420 -13.223  0.00  0.00     0.274 C 
BRANCH   5   8
ATOM      8  C   UNL d   1       6.559   1.378 -14.846  0.00  0.00     0.067 A 
ATOM      9  C   UNL d   1       5.701   0.633 -14.002  0.00  0.00     0.018 A 
ATOM     10  C   UNL d   1       5.141  -0.578 -14.444  0.00  0.00     0.001 A 
ATOM     11  C   UNL d   1       5.430  -1.055 -15.730  0.00  0.00    -0.003 A 
ATOM     12  C   UNL d   1       6.274  -0.325 -16.585  0.00  0.00    -0.010 A 
ATOM     13  C   UNL d   1       6.574  -0.840 -17.976  0.00  0.00     0.032 C 
ATOM     14  C   UNL d   1       6.840   0.893 -16.159  0.00  0.00     0.069 A 
ATOM     15 CL   UNL d   1       7.795   1.782 -17.303  0.00  0.00    -0.081 Cl
ENDBRANCH   5   8
ENDBRANCH   1   2
BRANCH   1  16
ATOM     16  C   UNL d   1       7.536   6.845 -13.004  0.00  0.00     0.038 C 
BRANCH  16  17
ATOM     17  C   UNL d   1       8.260   7.537 -11.920  0.00  0.00     0.035 C 
BRANCH  17  18
ATOM     18  C   UNL d   1       9.759   7.596 -12.000  0.00  0.00     0.151 C 
BRANCH  18  19
ATOM     19  O   UNL d   1      10.264   8.457 -11.011  0.00  0.00    -0.315 OA
BRANCH  19  20
ATOM     20  C   UNL d   1      10.312   8.003  -9.723  0.00  0.00     0.179 C 
ATOM     21  N   UNL d   1      11.043   8.789  -8.916  0.00  0.00    -0.204 NA
ATOM     22  C   UNL d   1      11.123   8.450  -7.611  0.00  0.00     0.163 C 
ATOM     23  C   UNL d   1      10.396   7.361  -7.085  0.00  0.00     0.014 C 
ATOM     24  N   UNL d   1      11.982   9.216  -6.776  0.00  0.00    -0.193 NA
ATOM     25  C   UNL d   1       9.607   6.573  -7.923  0.00  0.00     0.002 C 
ATOM     26  C   UNL d   1      10.531   6.968  -5.632  0.00  0.00     0.039 C 
ATOM     27  C   UNL d   1       9.641   6.837  -9.286  0.00  0.00     0.044 C 
ATOM     28  C   UNL d   1      11.082   8.110  -4.758  0.00  0.00     0.095 C 
ATOM     29  C   UNL d   1      12.066   9.053  -5.443  0.00  0.00     0.257 C 
ATOM     30  O   UNL d   1      12.924   9.595  -4.752  0.00  0.00    -0.270 OA
ENDBRANCH  19  20
ENDBRANCH  18  19
ENDBRANCH  17  18
ENDBRANCH  16  17
ENDBRANCH   1  16
TORSDOF 7
