REMARK  7 active torsions:
REMARK  status: ('A' for Active; 'I' for Inactive)
REMARK    1  A    between atoms: C_8  and  O_9 
REMARK    2  A    between atoms: O_9  and  C_10 
REMARK    3  A    between atoms: C_10  and  C_11 
REMARK    4  A    between atoms: C_11  and  C_12 
REMARK    5  A    between atoms: C_12  and  C_13 
REMARK    6  A    between atoms: C_13  and  N_14 
REMARK    7  A    between atoms: N_17  and  C_18 
ROOT
ATOM      1  C   UNL d   1       8.839   6.227 -12.339  0.00  0.00     0.038 C 
ENDROOT
BRANCH   1   2
ATOM      2  C   UNL d   1       9.678   6.820 -11.274  0.00  0.00     0.035 C 
BRANCH   2   3
ATOM      3  C   UNL d   1       9.635   8.346 -10.991  0.00  0.00     0.151 C 
BRANCH   3   4
ATOM      4  O   UNL d   1      10.591   8.899 -10.066  0.00  0.00    -0.315 OA
BRANCH   4   5
ATOM      5  C   UNL d   1      10.563   8.398  -8.777  0.00  0.00     0.179 A 
ATOM      6  C   UNL d   1       9.775   7.293  -8.354  0.00  0.00     0.044 A 
ATOM      7  C   UNL d   1       9.916   6.777  -7.077  0.00  0.00     0.007 A 
ATOM      8  C   UNL d   1      10.744   7.468  -6.202  0.00  0.00     0.036 A 
ATOM      9  C   UNL d   1      10.889   7.019  -4.831  0.00  0.00     0.008 A 
ATOM     10  C   UNL d   1      11.422   8.625  -6.641  0.00  0.00     0.168 A 
ATOM     11  C   UNL d   1      11.626   7.714  -3.970  0.00  0.00     0.063 A 
ATOM     12  C   UNL d   1      12.322   8.929  -4.376  0.00  0.00     0.281 A 
ATOM     13  O   UNL d   1      13.030   9.581  -3.627  0.00  0.00    -0.265 OA
ATOM     14  N   UNL d   1      12.186   9.297  -5.666  0.00  0.00    -0.189 NA
ATOM     15  N   UNL d   1      11.365   9.060  -7.918  0.00  0.00    -0.203 NA
ENDBRANCH   4   5
ENDBRANCH   3   4
ENDBRANCH   2   3
ENDBRANCH   1   2
BRANCH   1  16
ATOM     16  C   UNL d   1       9.178   4.738 -12.515  0.00  0.00     0.251 C 
BRANCH  16  17
ATOM     17  N   UNL d   1       8.336   4.195 -13.565  0.00  0.00     0.141 N 
ATOM     18  C   UNL d   1       8.840   2.874 -13.946  0.00  0.00     0.274 C 
ATOM     19  C   UNL d   1       7.985   2.244 -15.039  0.00  0.00     0.137 C 
ATOM     20  N   UNL d   1       6.601   2.223 -14.612  0.00  0.00    -0.344 N 
ATOM     21  C   UNL d   1       6.040   3.472 -14.115  0.00  0.00     0.137 C 
ATOM     22  C   UNL d   1       6.956   4.083 -13.072  0.00  0.00     0.274 C 
BRANCH  20  23
ATOM     23  C   UNL d   1       5.829   1.057 -14.690  0.00  0.00     0.068 A 
ATOM     24  C   UNL d   1       5.777   0.258 -15.867  0.00  0.00     0.084 A 
ATOM     25  C   UNL d   1       4.936  -0.874 -15.916  0.00  0.00     0.070 A 
ATOM     26 CL   UNL d   1       6.673   0.668 -17.295  0.00  0.00    -0.080 Cl
ATOM     27  C   UNL d   1       4.127  -1.203 -14.818  0.00  0.00     0.012 A 
ATOM     28 CL   UNL d   1       4.890  -1.881 -17.318  0.00  0.00    -0.081 Cl
ATOM     29  C   UNL d   1       4.132  -0.393 -13.674  0.00  0.00     0.002 A 
ATOM     30  C   UNL d   1       4.983   0.726 -13.606  0.00  0.00     0.018 A 
ENDBRANCH  20  23
ENDBRANCH  16  17
ENDBRANCH   1  16
TORSDOF 7
