REMARK  1 active torsions:
REMARK  status: ('A' for Active; 'I' for Inactive)
REMARK    1  A    between atoms: C_5  and  S_6 
ROOT
ATOM      1  N   UNL d   1      12.658   8.391  -1.713  0.00  0.00    -0.101 NA
ATOM      2  C   UNL d   1      12.122   8.267  -2.988  0.00  0.00     0.070 A 
ATOM      3  C   UNL d   1      11.741   9.420  -3.701  0.00  0.00     0.015 A 
ATOM      4  C   UNL d   1      11.191   9.310  -4.994  0.00  0.00     0.014 A 
ATOM      5  C   UNL d   1      11.026   8.033  -5.567  0.00  0.00     0.107 A 
ATOM      6  C   UNL d   1      11.407   6.880  -4.855  0.00  0.00     0.014 A 
ATOM      7  C   UNL d   1      11.950   6.994  -3.562  0.00  0.00     0.015 A 
ENDROOT
BRANCH   5   8
ATOM      8  S   UNL d   1      10.301   7.866  -7.197  0.00  0.00     0.302 S 
ATOM      9  N   UNL d   1       8.666   7.494  -6.840  0.00  0.00    -0.043 N 
ATOM     10  O   UNL d   1      10.326   9.185  -7.841  0.00  0.00    -0.197 OA
ATOM     11  O   UNL d   1      10.889   6.688  -7.850  0.00  0.00    -0.197 OA
ENDBRANCH   5   8
TORSDOF 1
