REMARK  2 active torsions:
REMARK  status: ('A' for Active; 'I' for Inactive)
REMARK    1  A    between atoms: C_7  and  C_8 
REMARK    2  A    between atoms: C_8  and  N_9 
ROOT
ATOM      1  C   UNL d   1       8.660   7.120  -6.788  0.00  0.00     0.131 C 
ATOM      2  N   UNL d   1       9.780   7.579  -7.634  0.00  0.00    -0.323 N 
ATOM      3  C   UNL d   1       9.708   7.300  -8.961  0.00  0.00     0.076 A 
ATOM      4  C   UNL d   1      10.723   7.701  -9.846  0.00  0.00     0.019 A 
ATOM      5  C   UNL d   1      11.837   8.389  -9.341  0.00  0.00     0.003 A 
ATOM      6  C   UNL d   1      11.897   8.662  -7.962  0.00  0.00     0.019 A 
ATOM      7  C   UNL d   1      10.854   8.247  -7.098  0.00  0.00     0.082 A 
ENDROOT
BRANCH   7   8
ATOM      8  C   UNL d   1      10.947   8.557  -5.644  0.00  0.00     0.148 C 
BRANCH   8   9
ATOM      9  N   UNL d   1      11.764   9.378  -5.128  0.00  0.00    -0.093 NA
ATOM     10  O   UNL d   1      11.544   9.393  -3.717  0.00  0.00    -0.061 OA
ENDBRANCH   8   9
ENDBRANCH   7   8
TORSDOF 2
