REMARK  9 active torsions:
REMARK  status: ('A' for Active; 'I' for Inactive)
REMARK    1  A    between atoms: O_2  and  C_3 
REMARK    2  A    between atoms: C_8  and  N_9 
REMARK    3  A    between atoms: N_12  and  C_13 
REMARK    4  A    between atoms: C_13  and  C_14 
REMARK    5  A    between atoms: C_14  and  C_15 
REMARK    6  A    between atoms: C_15  and  C_16 
REMARK    7  A    between atoms: C_16  and  O_17 
REMARK    8  A    between atoms: O_17  and  C_18 
REMARK    9  A    between atoms: C_23  and  C_24 
ROOT
ATOM      1  C   UNL d   1       8.724   3.832 -14.053  0.00  0.00     0.251 C 
ENDROOT
BRANCH   1   2
ATOM      2  N   UNL d   1       9.882   3.329 -14.800  0.00  0.00     0.141 N 
ATOM      3  C   UNL d   1       9.759   1.877 -14.992  0.00  0.00     0.274 C 
ATOM      4  C   UNL d   1      10.964   1.304 -15.773  0.00  0.00     0.137 C 
ATOM      5  N   UNL d   1      11.141   2.024 -17.025  0.00  0.00    -0.343 N 
ATOM      6  C   UNL d   1      11.194   3.474 -16.897  0.00  0.00     0.137 C 
ATOM      7  C   UNL d   1       9.962   3.974 -16.115  0.00  0.00     0.274 C 
BRANCH   5   8
ATOM      8  C   UNL d   1      11.171   1.370 -18.275  0.00  0.00     0.079 A 
ATOM      9  C   UNL d   1      10.388   1.829 -19.369  0.00  0.00     0.110 A 
ATOM     10  C   UNL d   1      10.509   1.176 -20.623  0.00  0.00     0.026 A 
ATOM     11  C   UNL d   1      11.364   0.071 -20.785  0.00  0.00     0.002 A 
ATOM     12  C   UNL d   1      12.114  -0.398 -19.692  0.00  0.00     0.002 A 
ATOM     13  C   UNL d   1      12.013   0.250 -18.446  0.00  0.00     0.019 A 
BRANCH   9  14
ATOM     14  O   UNL d   1       9.519   2.881 -19.151  0.00  0.00    -0.327 OA
ATOM     15  C   UNL d   1       8.857   3.461 -20.260  0.00  0.00     0.181 C 
ENDBRANCH   9  14
ENDBRANCH   5   8
ENDBRANCH   1   2
BRANCH   1  16
ATOM     16  C   UNL d   1       9.105   4.108 -12.594  0.00  0.00     0.038 C 
BRANCH  16  17
ATOM     17  C   UNL d   1       7.932   4.706 -11.793  0.00  0.00     0.035 C 
BRANCH  17  18
ATOM     18  C   UNL d   1       8.370   5.330 -10.463  0.00  0.00     0.149 C 
BRANCH  18  19
ATOM     19  O   UNL d   1       9.266   6.396 -10.746  0.00  0.00    -0.331 OA
BRANCH  19  20
ATOM     20  C   UNL d   1       9.871   7.045  -9.695  0.00  0.00     0.097 A 
ATOM     21  C   UNL d   1       9.672   6.726  -8.360  0.00  0.00     0.043 A 
ATOM     22  C   UNL d   1      10.371   7.447  -7.361  0.00  0.00     0.086 A 
ATOM     23  N   UNL d   1      11.251   8.467  -7.764  0.00  0.00    -0.229 N 
ATOM     24  C   UNL d   1      10.434   7.414  -5.996  0.00  0.00     0.038 A 
ATOM     25  C   UNL d   1      11.452   8.787  -9.070  0.00  0.00     0.102 A 
ATOM     26  N   UNL d   1      11.844   9.073  -6.689  0.00  0.00    -0.167 NA
ATOM     27  C   UNL d   1      10.762   8.095 -10.034  0.00  0.00     0.045 A 
ATOM     28  C   UNL d   1      11.349   8.440  -5.643  0.00  0.00     0.114 A 
BRANCH  28  29
ATOM     29  C   UNL d   1      11.760   8.808  -4.249  0.00  0.00     0.230 C 
ATOM     30  O   UNL d   1      11.062   9.990  -3.922  0.00  0.00    -0.214 OA
ENDBRANCH  28  29
ENDBRANCH  19  20
ENDBRANCH  18  19
ENDBRANCH  17  18
ENDBRANCH  16  17
ENDBRANCH   1  16
TORSDOF 9
