REMARK  10 active torsions:
REMARK  status: ('A' for Active; 'I' for Inactive)
REMARK    1  A    between atoms: O_2  and  C_3 
REMARK    2  A    between atoms: C_6  and  O_7 
REMARK    3  A    between atoms: O_7  and  C_8 
REMARK    4  A    between atoms: C_8  and  C_9 
REMARK    5  A    between atoms: C_9  and  N_10 
REMARK    6  A    between atoms: N_10  and  C_12 
REMARK    7  A    between atoms: C_12  and  C_13 
REMARK    8  A    between atoms: C_13  and  N_14 
REMARK       I    between atoms: N_14  and  C_16 
REMARK    9  A    between atoms: C_16  and  C_18 
REMARK   10  A    between atoms: C_21  and  O_22 
ROOT
ATOM      1  C   UNL d   1       9.165   4.861 -11.789  0.00  0.00     0.274 C 
ENDROOT
BRANCH   1   2
ATOM      2  N   UNL d   1       8.443   4.173 -12.868  0.00  0.00     0.144 N 
ATOM      3  C   UNL d   1       7.265   4.924 -13.247  0.00  0.00     0.286 C 
BRANCH   2   4
ATOM      4  C   UNL d   1       9.303   4.061 -14.050  0.00  0.00     0.283 C 
BRANCH   4   5
ATOM      5  C   UNL d   1      10.658   3.373 -13.778  0.00  0.00     0.184 C 
BRANCH   5   6
ATOM      6  O   UNL d   1      11.380   3.158 -14.984  0.00  0.00    -0.329 OA
BRANCH   6   7
ATOM      7  C   UNL d   1      10.964   2.163 -15.832  0.00  0.00     0.094 A 
ATOM      8  C   UNL d   1      11.586   2.102 -17.098  0.00  0.00     0.026 A 
ATOM      9  C   UNL d   1      11.219   1.119 -18.032  0.00  0.00     0.026 A 
ATOM     10  C   UNL d   1      10.221   0.166 -17.714  0.00  0.00     0.094 A 
ATOM     11  C   UNL d   1       9.601   0.223 -16.453  0.00  0.00     0.026 A 
ATOM     12  C   UNL d   1       9.965   1.210 -15.515  0.00  0.00     0.026 A 
BRANCH  10  13
ATOM     13  O   UNL d   1       9.805  -0.836 -18.558  0.00  0.00    -0.328 OA
ATOM     14  C   UNL d   1      10.261  -0.797 -19.900  0.00  0.00     0.181 C 
ENDBRANCH  10  13
ENDBRANCH   6   7
ENDBRANCH   5   6
ENDBRANCH   4   5
ENDBRANCH   2   4
ENDBRANCH   1   2
BRANCH   1  15
ATOM     15  C   UNL d   1       8.290   5.244 -10.584  0.00  0.00     0.140 C 
BRANCH  15  16
ATOM     16  N   UNL d   1       9.078   5.828  -9.498  0.00  0.00    -0.313 N 
ATOM     17  C   UNL d   1       8.952   5.106  -8.229  0.00  0.00     0.129 C 
ATOM     18  C   UNL d   1       9.712   7.020  -9.665  0.00  0.00     0.257 C 
ATOM     19  O   UNL d   1       9.799   7.602 -10.754  0.00  0.00    -0.267 OA
BRANCH  18  20
ATOM     20  C   UNL d   1      10.405   7.658  -8.498  0.00  0.00     0.056 A 
ATOM     21  C   UNL d   1       9.735   7.867  -7.277  0.00  0.00     0.007 A 
ATOM     22  C   UNL d   1      10.412   8.456  -6.188  0.00  0.00     0.024 A 
ATOM     23  C   UNL d   1      11.727   8.946  -6.346  0.00  0.00     0.094 A 
ATOM     24  C   UNL d   1      12.363   8.792  -7.599  0.00  0.00     0.024 A 
ATOM     25  C   UNL d   1      11.709   8.151  -8.672  0.00  0.00     0.007 A 
BRANCH  23  26
ATOM     26  O   UNL d   1      12.427   9.574  -5.339  0.00  0.00    -0.328 OA
ATOM     27  C   UNL d   1      11.909   9.472  -4.021  0.00  0.00     0.181 C 
ENDBRANCH  23  26
ENDBRANCH  18  20
ENDBRANCH  15  16
ENDBRANCH   1  15
TORSDOF 10
