REMARK  5 active torsions:
REMARK  status: ('A' for Active; 'I' for Inactive)
REMARK    1  A    between atoms: C_2  and  C_3 
REMARK    2  A    between atoms: C_4  and  C_5 
REMARK    3  A    between atoms: N_13  and  C_14 
REMARK    4  A    between atoms: C_14  and  C_15 
REMARK    5  A    between atoms: C_15  and  C_16 
ROOT
ATOM      1  C   UNL d   1       8.176   4.796 -10.414  0.00  0.00     0.005 C 
ATOM      2  C   UNL d   1       8.596   4.867 -11.687  0.00  0.00    -0.022 C 
ATOM      3  C   UNL d   1       9.568   5.962 -12.078  0.00  0.00     0.061 C 
ATOM      4  C   UNL d   1       9.669   7.064 -11.011  0.00  0.00     0.255 C 
ATOM      5  N   UNL d   1       9.863   6.464  -9.694  0.00  0.00     0.142 N 
ATOM      6  C   UNL d   1       8.669   5.707  -9.312  0.00  0.00     0.276 C 
ENDROOT
BRANCH   5   7
ATOM      7  C   UNL d   1      10.138   7.519  -8.726  0.00  0.00     0.255 C 
BRANCH   7   8
ATOM      8  C   UNL d   1      10.658   6.964  -7.387  0.00  0.00     0.063 C 
BRANCH   8   9
ATOM      9  C   UNL d   1      11.040   8.044  -6.418  0.00  0.00     0.002 A 
ATOM     10  C   UNL d   1      11.443   7.874  -5.048  0.00  0.00     0.034 A 
ATOM     11  C   UNL d   1      11.697   9.160  -4.501  0.00  0.00     0.162 A 
ATOM     12  C   UNL d   1      11.624   6.790  -4.160  0.00  0.00     0.004 A 
ATOM     13  N   UNL d   1      11.457  10.058  -5.514  0.00  0.00    -0.226 NA
ATOM     14  N   UNL d   1      12.092   9.454  -3.236  0.00  0.00    -0.225 NA
ATOM     15  C   UNL d   1      11.069   9.396  -6.661  0.00  0.00     0.097 A 
ATOM     16  C   UNL d   1      12.260   8.379  -2.435  0.00  0.00     0.101 A 
ATOM     17  C   UNL d   1      12.040   7.045  -2.838  0.00  0.00     0.021 A 
ENDBRANCH   8   9
ENDBRANCH   7   8
ENDBRANCH   5   7
BRANCH   2  18
ATOM     18  C   UNL d   1       8.075   3.937 -12.668  0.00  0.00    -0.004 C 
ATOM     19  C   UNL d   1       8.699   3.668 -13.831  0.00  0.00    -0.000 C 
BRANCH  19  20
ATOM     20  C   UNL d   1       8.260   2.732 -14.877  0.00  0.00    -0.000 A 
ATOM     21  C   UNL d   1       9.058   2.592 -16.036  0.00  0.00    -0.000 A 
ATOM     22  C   UNL d   1       8.671   1.720 -17.073  0.00  0.00    -0.000 A 
ATOM     23  C   UNL d   1       7.483   0.976 -16.956  0.00  0.00     0.000 A 
ATOM     24  C   UNL d   1       6.685   1.103 -15.805  0.00  0.00    -0.000 A 
ATOM     25  C   UNL d   1       7.069   1.978 -14.772  0.00  0.00    -0.000 A 
ENDBRANCH  19  20
ENDBRANCH   2  18
TORSDOF 5
