REMARK  7 active torsions:
REMARK  status: ('A' for Active; 'I' for Inactive)
REMARK    1  A    between atoms: C_2  and  C_3 
REMARK    2  A    between atoms: C_3  and  C_4 
REMARK    3  A    between atoms: C_4  and  C_5 
REMARK    4  A    between atoms: N_14  and  C_15 
REMARK    5  A    between atoms: C_15  and  C_16 
REMARK    6  A    between atoms: C_19  and  C_20 
REMARK    7  A    between atoms: C_25  and  C_26 
ROOT
ATOM      1  C   UNL d   1      11.152   2.515 -16.397  0.00  0.00     0.001 A 
ATOM      2  C   UNL d   1      10.579   3.783 -16.582  0.00  0.00    -0.002 A 
ATOM      3  C   UNL d   1       9.604   4.275 -15.708  0.00  0.00    -0.000 A 
ATOM      4  C   UNL d   1       9.120   3.458 -14.669  0.00  0.00     0.000 A 
ATOM      5  C   UNL d   1       9.671   2.168 -14.495  0.00  0.00    -0.000 A 
ATOM      6  C   UNL d   1      10.673   1.684 -15.351  0.00  0.00    -0.002 A 
ENDROOT
BRANCH   1   7
ATOM      7  C   UNL d   1      12.276   2.009 -17.310  0.00  0.00     0.137 C 
BRANCH   7   8
ATOM      8  N   UNL d   1      13.050   3.100 -17.954  0.00  0.00    -0.282 N 
ATOM      9  C   UNL d   1      13.504   3.056 -19.291  0.00  0.00     0.118 A 
ATOM     10  N   UNL d   1      14.191   4.102 -19.636  0.00  0.00    -0.253 NA
ATOM     11  C   UNL d   1      14.256   4.989 -18.457  0.00  0.00     0.157 A 
ATOM     12  C   UNL d   1      13.753   6.414 -18.773  0.00  0.00     0.032 C 
ATOM     13  C   UNL d   1      15.690   5.198 -17.958  0.00  0.00     0.032 C 
ATOM     14  C   UNL d   1      13.477   4.220 -17.412  0.00  0.00     0.259 A 
ATOM     15  C   UNL d   1      14.380   7.291 -17.681  0.00  0.00     0.003 C 
ATOM     16  C   UNL d   1      15.677   6.571 -17.257  0.00  0.00     0.003 C 
ATOM     17  O   UNL d   1      13.333   4.706 -16.217  0.00  0.00    -0.270 OA
BRANCH   9  18
ATOM     18  C   UNL d   1      13.188   1.860 -20.163  0.00  0.00     0.064 C 
BRANCH  18  19
ATOM     19  C   UNL d   1      14.052   0.626 -19.863  0.00  0.00     0.008 C 
BRANCH  19  20
ATOM     20  C   UNL d   1      15.550   0.879 -20.070  0.00  0.00     0.001 C 
ATOM     21  C   UNL d   1      16.399  -0.376 -19.863  0.00  0.00     0.000 C 
ENDBRANCH  19  20
ENDBRANCH  18  19
ENDBRANCH   9  18
ENDBRANCH   7   8
ENDBRANCH   1   7
BRANCH   4  22
ATOM     22  C   UNL d   1       8.009   3.940 -13.842  0.00  0.00     0.003 A 
ATOM     23  C   UNL d   1       6.806   3.194 -13.679  0.00  0.00     0.039 A 
ATOM     24  C   UNL d   1       5.822   3.716 -12.802  0.00  0.00     0.003 A 
ATOM     25  C   UNL d   1       5.984   4.960 -12.169  0.00  0.00     0.000 A 
ATOM     26  C   UNL d   1       7.143   5.718 -12.395  0.00  0.00     0.000 A 
ATOM     27  C   UNL d   1       8.149   5.205 -13.221  0.00  0.00     0.000 A 
BRANCH  23  28
ATOM     28  C   UNL d   1       6.553   1.877 -14.305  0.00  0.00     0.202 A 
ATOM     29  N   UNL d   1       5.867   0.882 -13.665  0.00  0.00    -0.112 NA
ATOM     30  N   UNL d   1       5.870  -0.116 -14.489  0.00  0.00    -0.050 NA
ATOM     31  N   UNL d   1       6.549   0.298 -15.579  0.00  0.00     0.049 NA
ATOM     32  N   UNL d   1       6.965   1.575 -15.524  0.00  0.00    -0.134 NA
ENDBRANCH  23  28
ENDBRANCH   4  22
TORSDOF 7
