REMARK  1 active torsions:
REMARK  status: ('A' for Active; 'I' for Inactive)
REMARK    1  A    between atoms: C_2  and  C_4 
ROOT
ATOM      1  C   UNL d   1      11.402   8.306  -8.818  0.00  0.00     0.038 C 
ATOM      2  C   UNL d   1       9.869   8.227  -8.816  0.00  0.00     0.185 C 
ATOM      3  O   UNL d   1       9.460   7.494  -9.946  0.00  0.00    -0.221 OA
ENDROOT
BRANCH   2   4
ATOM      4  C   UNL d   1       9.321   7.533  -7.556  0.00  0.00     0.215 C 
ATOM      5  O   UNL d   1       9.459   8.384  -6.440  0.00  0.00    -0.218 OA
ENDBRANCH   2   4
TORSDOF 1
