REMARK  2 active torsions:
REMARK  status: ('A' for Active; 'I' for Inactive)
REMARK    1  A    between atoms: C_2  and  C_3 
REMARK    2  A    between atoms: C_3  and  C_4 
ROOT
ATOM      1  C   UNL d   1      11.165   8.091  -6.048  0.00  0.00    -0.018 A 
ATOM      2  C   UNL d   1      11.799   8.869  -7.041  0.00  0.00    -0.004 A 
ATOM      3  C   UNL d   1      11.382   8.787  -8.385  0.00  0.00     0.002 A 
ATOM      4  C   UNL d   1      10.312   7.945  -8.747  0.00  0.00     0.027 A 
ATOM      5  C   UNL d   1       9.682   7.168  -7.760  0.00  0.00     0.131 A 
ATOM      6  O   UNL d   1       8.660   6.330  -8.096  0.00  0.00    -0.190 OA
ATOM      7  C   UNL d   1      10.097   7.245  -6.419  0.00  0.00     0.023 A 
ENDROOT
BRANCH   1   8
ATOM      8  C   UNL d   1      11.637   8.168  -4.599  0.00  0.00     0.068 C 
BRANCH   8   9
ATOM      9  C   UNL d   1      11.650   6.800  -3.892  0.00  0.00     0.343 C 
ATOM     10  N   UNL d   1      12.126   6.926  -2.529  0.00  0.00     0.618 N 
ENDBRANCH   8   9
ENDBRANCH   1   8
TORSDOF 2
