REMARK  8 active torsions:
REMARK  status: ('A' for Active; 'I' for Inactive)
REMARK    1  A    between atoms: S_2  and  N_4 
REMARK    2  A    between atoms: S_2  and  C_24 
REMARK    3  A    between atoms: N_4  and  C_5 
REMARK    4  A    between atoms: C_5  and  C_6 
REMARK    5  A    between atoms: C_6  and  C_7 
REMARK    6  A    between atoms: C_7  and  C_8 
REMARK    7  A    between atoms: C_8  and  N_9 
REMARK    8  A    between atoms: N_12  and  C_13 
ROOT
ATOM      1  C   UNL d   1       8.128   4.197 -12.229  0.00  0.00     0.037 C 
ENDROOT
BRANCH   1   2
ATOM      2  C   UNL d   1       7.503   4.029 -13.621  0.00  0.00     0.029 C 
BRANCH   2   3
ATOM      3  C   UNL d   1       6.954   2.627 -13.872  0.00  0.00     0.139 C 
BRANCH   3   4
ATOM      4  N   UNL d   1       8.033   1.644 -14.089  0.00  0.00    -0.185 NA
BRANCH   4   5
ATOM      5  S   UNL d   1       8.538   1.224 -15.681  0.00  0.00     0.281 S 
ATOM      6  O   UNL d   1       8.639   2.470 -16.459  0.00  0.00    -0.199 OA
ATOM      7  O   UNL d   1       9.707   0.346 -15.548  0.00  0.00    -0.199 OA
BRANCH   5   8
ATOM      8  C   UNL d   1       7.156   0.271 -16.317  0.00  0.00     0.105 A 
ATOM      9  C   UNL d   1       7.239  -0.180 -17.649  0.00  0.00     0.013 A 
ATOM     10  C   UNL d   1       6.174  -0.928 -18.201  0.00  0.00     0.001 A 
ATOM     11  C   UNL d   1       5.026  -1.197 -17.413  0.00  0.00     0.000 A 
ATOM     12  C   UNL d   1       6.244  -1.417 -19.521  0.00  0.00     0.000 A 
ATOM     13  C   UNL d   1       4.955  -0.743 -16.084  0.00  0.00     0.001 A 
ATOM     14  C   UNL d   1       3.952  -1.938 -17.941  0.00  0.00     0.000 A 
ATOM     15  C   UNL d   1       6.027  -0.029 -15.518  0.00  0.00     0.013 A 
ATOM     16  C   UNL d   1       4.024  -2.427 -19.259  0.00  0.00     0.000 A 
ATOM     17  C   UNL d   1       5.165  -2.166 -20.045  0.00  0.00     0.000 A 
ENDBRANCH   5   8
ENDBRANCH   4   5
ENDBRANCH   3   4
ENDBRANCH   2   3
ENDBRANCH   1   2
BRANCH   1  18
ATOM     18  C   UNL d   1       8.274   5.673 -11.862  0.00  0.00     0.251 C 
BRANCH  18  19
ATOM     19  N   UNL d   1       9.322   5.864 -10.863  0.00  0.00     0.141 N 
ATOM     20  C   UNL d   1       9.827   7.236 -10.963  0.00  0.00     0.274 C 
ATOM     21  C   UNL d   1      10.978   7.453  -9.962  0.00  0.00     0.138 C 
ATOM     22  N   UNL d   1      10.591   7.085  -8.617  0.00  0.00    -0.328 N 
ATOM     23  C   UNL d   1       9.904   5.812  -8.459  0.00  0.00     0.138 C 
ATOM     24  C   UNL d   1       8.781   5.656  -9.511  0.00  0.00     0.274 C 
BRANCH  22  25
ATOM     25  C   UNL d   1      10.671   7.997  -7.565  0.00  0.00     0.169 A 
ATOM     26  C   UNL d   1      11.055   7.725  -6.239  0.00  0.00     0.061 A 
ATOM     27  C   UNL d   1      11.084   8.926  -5.516  0.00  0.00     0.128 A 
ATOM     28  C   UNL d   1      11.461   6.529  -5.622  0.00  0.00     0.005 A 
ATOM     29  O   UNL d   1      10.720   9.892  -6.435  0.00  0.00    -0.210 OA
ATOM     30  C   UNL d   1      11.452   8.983  -4.150  0.00  0.00     0.027 A 
ATOM     31  N   UNL d   1      10.483   9.298  -7.708  0.00  0.00    -0.109 NA
ATOM     32  C   UNL d   1      11.874   7.779  -3.535  0.00  0.00     0.002 A 
ATOM     33  C   UNL d   1      11.845   6.565  -4.253  0.00  0.00     0.000 A 
ENDBRANCH  22  25
ENDBRANCH  18  19
ENDBRANCH   1  18
TORSDOF 8
