REMARK  8 active torsions:
REMARK  status: ('A' for Active; 'I' for Inactive)
REMARK    1  A    between atoms: C_4  and  C_5 
REMARK    2  A    between atoms: C_8  and  C_9 
REMARK    3  A    between atoms: C_13  and  O_14 
REMARK    4  A    between atoms: O_14  and  C_15 
REMARK       I    between atoms: C_15  and  N_17 
REMARK    5  A    between atoms: N_17  and  C_18 
REMARK    6  A    between atoms: C_18  and  C_19 
REMARK    7  A    between atoms: C_19  and  N_20 
REMARK    8  A    between atoms: N_23  and  C_24 
ROOT
ATOM      1  O   UNL d   1       9.248   4.501 -14.132  0.00  0.00    -0.258 OA
ENDROOT
BRANCH   1   2
ATOM      2  C   UNL d   1       9.314   3.189 -14.536  0.00  0.00     0.105 A 
ATOM      3  C   UNL d   1      10.516   2.456 -14.444  0.00  0.00     0.025 A 
ATOM      4  C   UNL d   1      10.554   1.115 -14.868  0.00  0.00     0.002 A 
ATOM      5  C   UNL d   1       9.408   0.506 -15.412  0.00  0.00     0.002 A 
ATOM      6  C   UNL d   1       8.210   1.237 -15.537  0.00  0.00     0.018 A 
ATOM      7  C   UNL d   1       8.170   2.571 -15.082  0.00  0.00     0.026 A 
BRANCH   6   8
ATOM      8  C   UNL d   1       7.018   0.612 -16.102  0.00  0.00     0.065 A 
ATOM      9  C   UNL d   1       5.936   0.007 -15.508  0.00  0.00     0.076 A 
ATOM     10  C   UNL d   1       5.064  -0.410 -16.548  0.00  0.00     0.019 A 
ATOM     11  C   UNL d   1       5.627  -0.076 -17.747  0.00  0.00     0.038 A 
ATOM     12  C   UNL d   1       5.129  -0.322 -19.135  0.00  0.00     0.050 C 
ATOM     13  N   UNL d   1       6.829   0.570 -17.480  0.00  0.00    -0.329 N 
ATOM     14  C   UNL d   1       7.746   1.098 -18.478  0.00  0.00     0.130 C 
BRANCH   9  15
ATOM     15  C   UNL d   1       5.752  -0.120 -14.050  0.00  0.00     0.298 C 
ATOM     16  N   UNL d   1       6.828  -0.413 -13.326  0.00  0.00    -0.102 N 
ATOM     17  O   UNL d   1       4.646  -0.017 -13.532  0.00  0.00    -0.264 OA
ENDBRANCH   9  15
ENDBRANCH   6   8
ENDBRANCH   1   2
BRANCH   1  18
ATOM     18  C   UNL d   1       9.269   4.801 -12.821  0.00  0.00     0.388 C 
ATOM     19  O   UNL d   1       9.430   3.992 -11.907  0.00  0.00    -0.236 OA
ATOM     20  N   UNL d   1       9.062   6.153 -12.668  0.00  0.00    -0.210 NA
BRANCH  20  21
ATOM     21  C   UNL d   1       8.790   6.788 -11.385  0.00  0.00     0.166 C 
BRANCH  21  22
ATOM     22  C   UNL d   1      10.082   7.094 -10.615  0.00  0.00     0.277 C 
BRANCH  22  23
ATOM     23  N   UNL d   1       9.860   7.729  -9.323  0.00  0.00     0.143 N 
ATOM     24  C   UNL d   1       9.566   6.711  -8.308  0.00  0.00     0.274 C 
ATOM     25  C   UNL d   1       9.275   7.379  -6.952  0.00  0.00     0.137 C 
ATOM     26  N   UNL d   1      10.394   8.237  -6.568  0.00  0.00    -0.344 N 
ATOM     27  C   UNL d   1      10.803   9.196  -7.578  0.00  0.00     0.137 C 
ATOM     28  C   UNL d   1      11.054   8.484  -8.920  0.00  0.00     0.274 C 
BRANCH  26  29
ATOM     29  C   UNL d   1      11.069   8.131  -5.341  0.00  0.00     0.056 A 
ATOM     30  C   UNL d   1      11.229   6.879  -4.712  0.00  0.00     0.017 A 
ATOM     31  C   UNL d   1      11.866   6.774  -3.466  0.00  0.00     0.002 A 
ATOM     32  C   UNL d   1      12.385   7.911  -2.834  0.00  0.00     0.000 A 
ATOM     33  C   UNL d   1      12.257   9.161  -3.460  0.00  0.00     0.002 A 
ATOM     34  C   UNL d   1      11.603   9.274  -4.704  0.00  0.00     0.017 A 
ENDBRANCH  26  29
ENDBRANCH  22  23
ENDBRANCH  21  22
ENDBRANCH  20  21
ENDBRANCH   1  18
TORSDOF 8
