REMARK  10 active torsions:
REMARK  status: ('A' for Active; 'I' for Inactive)
REMARK    1  A    between atoms: O_2  and  C_3 
REMARK    2  A    between atoms: C_8  and  N_9 
REMARK    3  A    between atoms: N_12  and  C_13 
REMARK    4  A    between atoms: C_13  and  C_14 
REMARK    5  A    between atoms: C_14  and  C_15 
REMARK    6  A    between atoms: C_15  and  C_16 
REMARK    7  A    between atoms: C_16  and  C_17 
REMARK    8  A    between atoms: C_17  and  C_18 
REMARK    9  A    between atoms: C_18  and  N_19 
REMARK   10  A    between atoms: N_19  and  C_20 
ROOT
ATOM      1  C   UNL d   1       9.560   3.247 -13.993  0.00  0.00     0.250 C 
ENDROOT
BRANCH   1   2
ATOM      2  N   UNL d   1       9.482   2.145 -14.954  0.00  0.00     0.141 N 
ATOM      3  C   UNL d   1       9.232   2.636 -16.311  0.00  0.00     0.274 C 
ATOM      4  C   UNL d   1       9.216   1.482 -17.330  0.00  0.00     0.137 C 
ATOM      5  N   UNL d   1       8.256   0.459 -16.908  0.00  0.00    -0.343 N 
ATOM      6  C   UNL d   1       8.463  -0.024 -15.545  0.00  0.00     0.137 C 
ATOM      7  C   UNL d   1       8.469   1.156 -14.566  0.00  0.00     0.274 C 
BRANCH   5   8
ATOM      8  C   UNL d   1       7.195   0.055 -17.725  0.00  0.00     0.079 A 
ATOM      9  C   UNL d   1       5.880  -0.176 -17.222  0.00  0.00     0.110 A 
ATOM     10  C   UNL d   1       4.865  -0.646 -18.095  0.00  0.00     0.026 A 
ATOM     11  C   UNL d   1       5.130  -0.857 -19.461  0.00  0.00     0.002 A 
ATOM     12  C   UNL d   1       6.412  -0.606 -19.968  0.00  0.00     0.002 A 
ATOM     13  C   UNL d   1       7.435  -0.158 -19.108  0.00  0.00     0.019 A 
BRANCH   9  14
ATOM     14  O   UNL d   1       5.620   0.122 -15.899  0.00  0.00    -0.327 OA
ATOM     15  C   UNL d   1       4.611  -0.621 -15.233  0.00  0.00     0.181 C 
ENDBRANCH   9  14
ENDBRANCH   5   8
ENDBRANCH   1   2
BRANCH   1  16
ATOM     16  C   UNL d   1       8.234   4.039 -13.843  0.00  0.00     0.035 C 
BRANCH  16  17
ATOM     17  C   UNL d   1       8.239   5.113 -12.756  0.00  0.00     0.002 C 
BRANCH  17  18
ATOM     18  C   UNL d   1       8.339   4.518 -11.348  0.00  0.00     0.002 C 
BRANCH  18  19
ATOM     19  C   UNL d   1       8.257   5.591 -10.268  0.00  0.00     0.027 C 
BRANCH  19  20
ATOM     20  C   UNL d   1       8.663   5.075  -8.871  0.00  0.00     0.145 C 
BRANCH  20  21
ATOM     21  N   UNL d   1       8.740   6.130  -7.867  0.00  0.00    -0.085 NA
BRANCH  21  22
ATOM     22  C   UNL d   1       9.717   7.103  -7.803  0.00  0.00     0.776 A 
ATOM     23  N   UNL d   1       9.715   7.831  -6.684  0.00  0.00     0.136 NA
ATOM     24  C   UNL d   1      10.687   8.744  -6.674  0.00  0.00     0.799 A 
ATOM     25  N   UNL d   1      11.591   8.995  -7.616  0.00  0.00     0.138 NA
ATOM     26  N   UNL d   1      10.798   9.495  -5.544  0.00  0.00     0.063 N 
ATOM     27  C   UNL d   1      11.449   8.192  -8.664  0.00  0.00     0.799 A 
ATOM     28  N   UNL d   1      10.571   7.202  -8.829  0.00  0.00     0.136 NA
ATOM     29  N   UNL d   1      12.319   8.384  -9.697  0.00  0.00     0.063 N 
ENDBRANCH  21  22
ENDBRANCH  20  21
ENDBRANCH  19  20
ENDBRANCH  18  19
ENDBRANCH  17  18
ENDBRANCH  16  17
ENDBRANCH   1  16
TORSDOF 10
