REMARK  1 active torsions:
REMARK  status: ('A' for Active; 'I' for Inactive)
REMARK    1  A    between atoms: C_2  and  C_4 
ROOT
ATOM      1  C   UNL d   1       5.401  -1.169 -17.014  0.00  0.00     0.060 A 
ATOM      2  C   UNL d   1       4.390  -1.134 -16.028  0.00  0.00     0.005 A 
ATOM      3  C   UNL d   1       4.535  -0.322 -14.896  0.00  0.00    -0.004 A 
ATOM      4  C   UNL d   1       5.709   0.435 -14.715  0.00  0.00    -0.018 A 
ATOM      5  C   UNL d   1       6.778   0.368 -15.635  0.00  0.00     0.021 A 
ATOM      6  C   UNL d   1       6.593  -0.410 -16.817  0.00  0.00     0.133 A 
ATOM      7  O   UNL d   1       7.548  -0.398 -17.798  0.00  0.00    -0.190 OA
ATOM      8  C   UNL d   1       8.014   1.140 -15.308  0.00  0.00    -0.001 A 
ATOM      9  C   UNL d   1       9.312   0.760 -15.740  0.00  0.00    -0.000 A 
ATOM     10  C   UNL d   1      10.474   1.487 -15.419  0.00  0.00    -0.000 A 
ATOM     11  C   UNL d   1      10.391   2.632 -14.614  0.00  0.00    -0.004 A 
ATOM     12  C   UNL d   1       9.144   3.038 -14.110  0.00  0.00    -0.022 A 
ATOM     13  C   UNL d   1       7.994   2.276 -14.455  0.00  0.00     0.005 A 
ATOM     14  C   UNL d   1       6.610   2.667 -13.904  0.00  0.00     0.246 C 
ATOM     15  C   UNL d   1       5.796   1.392 -13.546  0.00  0.00     0.064 C 
ATOM     16  N   UNL d   1       6.641   3.595 -12.768  0.00  0.00     0.142 N 
ATOM     17  C   UNL d   1       5.326   4.126 -12.441  0.00  0.00     0.286 C 
ATOM     18  C   UNL d   1       7.505   4.718 -13.088  0.00  0.00     0.255 C 
ATOM     19  C   UNL d   1       8.935   4.201 -13.155  0.00  0.00     0.061 C 
ENDROOT
BRANCH   1  20
ATOM     20  C   UNL d   1       5.207  -2.025 -18.221  0.00  0.00     0.175 C 
ATOM     21  C   UNL d   1       3.785  -2.444 -18.579  0.00  0.00     0.077 C 
ATOM     22  O   UNL d   1       6.130  -2.377 -18.959  0.00  0.00    -0.291 OA
ENDBRANCH   1  20
TORSDOF 1
