REMARK  5 active torsions:
REMARK  status: ('A' for Active; 'I' for Inactive)
REMARK    1  A    between atoms: C_5  and  C_6 
REMARK       I    between atoms: C_6  and  N_8 
REMARK    2  A    between atoms: N_8  and  C_9 
REMARK    3  A    between atoms: N_12  and  C_13 
REMARK    4  A    between atoms: C_13  and  C_14 
REMARK    5  A    between atoms: C_21  and  O_22 
ROOT
ATOM      1  C   UNL d   1      11.370   2.987 -15.440  0.00  0.00    -0.009 C 
ATOM      2  C   UNL d   1      10.468   3.472 -14.779  0.00  0.00    -0.051 C 
ATOM      3  C   UNL d   1       9.401   4.074 -13.990  0.00  0.00     0.043 A 
ATOM      4  C   UNL d   1       9.674   5.295 -13.359  0.00  0.00     0.015 A 
ATOM      5  C   UNL d   1       8.712   5.964 -12.574  0.00  0.00     0.080 A 
ATOM      6  C   UNL d   1       7.428   5.393 -12.428  0.00  0.00     0.099 A 
ATOM      7  C   UNL d   1       7.151   4.141 -13.019  0.00  0.00     0.023 A 
ATOM      8  C   UNL d   1       5.903   3.520 -12.803  0.00  0.00     0.002 A 
ATOM      9  C   UNL d   1       5.624   2.256 -13.360  0.00  0.00     0.000 A 
ATOM     10  C   UNL d   1       6.566   1.627 -14.194  0.00  0.00     0.000 A 
ATOM     11  C   UNL d   1       7.809   2.239 -14.432  0.00  0.00     0.001 A 
ATOM     12  C   UNL d   1       8.123   3.479 -13.826  0.00  0.00     0.009 A 
ENDROOT
BRANCH   5  13
ATOM     13  C   UNL d   1       9.101   7.239 -11.901  0.00  0.00     0.277 C 
ATOM     14  O   UNL d   1       8.774   8.336 -12.382  0.00  0.00    -0.266 OA
ATOM     15  N   UNL d   1       9.866   7.111 -10.809  0.00  0.00    -0.234 NA
BRANCH  15  16
ATOM     16  C   UNL d   1      10.271   8.197  -9.936  0.00  0.00     0.142 C 
ATOM     17  C   UNL d   1       9.403   8.250  -8.684  0.00  0.00     0.275 C 
ATOM     18  N   UNL d   1      10.296   8.670  -7.636  0.00  0.00     0.143 N 
ATOM     19  C   UNL d   1      11.490   7.892  -7.891  0.00  0.00     0.253 C 
ATOM     20  C   UNL d   1      11.683   8.036  -9.401  0.00  0.00     0.062 C 
BRANCH  18  21
ATOM     21  C   UNL d   1       9.687   8.398  -6.323  0.00  0.00     0.277 C 
BRANCH  21  22
ATOM     22  C   UNL d   1      10.720   8.410  -5.231  0.00  0.00     0.011 A 
ATOM     23  C   UNL d   1      11.301   7.203  -4.821  0.00  0.00    -0.002 A 
ATOM     24  C   UNL d   1      12.224   7.178  -3.754  0.00  0.00    -0.000 A 
ATOM     25  C   UNL d   1      12.585   8.379  -3.115  0.00  0.00    -0.000 A 
ATOM     26  C   UNL d   1      11.988   9.585  -3.505  0.00  0.00    -0.000 A 
ATOM     27  C   UNL d   1      11.060   9.615  -4.573  0.00  0.00    -0.002 A 
ENDBRANCH  21  22
ENDBRANCH  18  21
ENDBRANCH  15  16
ENDBRANCH   5  13
BRANCH   6  28
ATOM     28  O   UNL d   1       6.463   6.014 -11.656  0.00  0.00    -0.328 OA
ATOM     29  C   UNL d   1       5.792   7.082 -12.307  0.00  0.00     0.181 C 
ENDBRANCH   6  28
TORSDOF 5
