REMARK  8 active torsions:
REMARK  status: ('A' for Active; 'I' for Inactive)
REMARK    1  A    between atoms: O_2  and  C_3 
REMARK    2  A    between atoms: C_8  and  N_9 
REMARK    3  A    between atoms: N_12  and  C_13 
REMARK    4  A    between atoms: C_13  and  C_14 
REMARK    5  A    between atoms: C_14  and  C_15 
REMARK    6  A    between atoms: C_15  and  C_16 
REMARK    7  A    between atoms: C_16  and  N_17 
REMARK       I    between atoms: N_17  and  C_18 
REMARK    8  A    between atoms: C_18  and  C_20 
ROOT
ATOM      1  C   UNL d   1       6.650   3.593 -13.194  0.00  0.00     0.037 C 
ENDROOT
BRANCH   1   2
ATOM      2  C   UNL d   1       6.912   5.032 -12.737  0.00  0.00     0.251 C 
BRANCH   2   3
ATOM      3  N   UNL d   1       8.130   5.181 -11.964  0.00  0.00     0.141 N 
ATOM      4  C   UNL d   1       8.543   6.594 -12.005  0.00  0.00     0.274 C 
ATOM      5  C   UNL d   1       9.823   6.771 -11.187  0.00  0.00     0.137 C 
ATOM      6  N   UNL d   1       9.642   6.301  -9.824  0.00  0.00    -0.343 N 
ATOM      7  C   UNL d   1       9.116   4.956  -9.698  0.00  0.00     0.137 C 
ATOM      8  C   UNL d   1       7.856   4.855 -10.563  0.00  0.00     0.274 C 
BRANCH   6   9
ATOM      9  C   UNL d   1       9.983   7.085  -8.703  0.00  0.00     0.079 A 
ATOM     10  C   UNL d   1      11.209   7.802  -8.643  0.00  0.00     0.110 A 
ATOM     11  C   UNL d   1      11.508   8.571  -7.491  0.00  0.00     0.026 A 
ATOM     12  C   UNL d   1      10.607   8.635  -6.416  0.00  0.00     0.002 A 
ATOM     13  C   UNL d   1       9.400   7.925  -6.486  0.00  0.00     0.002 A 
ATOM     14  C   UNL d   1       9.091   7.147  -7.610  0.00  0.00     0.019 A 
BRANCH  10  15
ATOM     15  O   UNL d   1      12.059   7.702  -9.720  0.00  0.00    -0.327 OA
ATOM     16  C   UNL d   1      13.440   7.913  -9.515  0.00  0.00     0.181 C 
ENDBRANCH  10  15
ENDBRANCH   6   9
ENDBRANCH   2   3
ENDBRANCH   1   2
BRANCH   1  17
ATOM     17  C   UNL d   1       7.810   3.032 -14.043  0.00  0.00     0.029 C 
BRANCH  17  18
ATOM     18  C   UNL d   1       7.446   1.710 -14.731  0.00  0.00     0.129 C 
BRANCH  18  19
ATOM     19  N   UNL d   1       8.434   1.364 -15.746  0.00  0.00    -0.234 NA
ATOM     20  C   UNL d   1       8.223   1.376 -17.071  0.00  0.00     0.281 C 
ATOM     21  O   UNL d   1       7.152   1.700 -17.588  0.00  0.00    -0.265 OA
BRANCH  20  22
ATOM     22  C   UNL d   1       9.373   0.953 -17.894  0.00  0.00     0.087 A 
ATOM     23  S   UNL d   1       8.994   0.340 -19.484  0.00  0.00    -0.082 SA
ATOM     24  C   UNL d   1      10.698   0.106 -19.843  0.00  0.00     0.030 A 
ATOM     25  C   UNL d   1      11.507   0.538 -18.745  0.00  0.00     0.007 A 
ATOM     26  C   UNL d   1      11.267  -0.408 -21.023  0.00  0.00     0.007 A 
ATOM     27  C   UNL d   1      10.722   1.027 -17.634  0.00  0.00     0.012 A 
ATOM     28  C   UNL d   1      12.905   0.437 -18.909  0.00  0.00     0.006 A 
ATOM     29  C   UNL d   1      13.486  -0.092 -20.077  0.00  0.00     0.030 A 
ATOM     30  I   UNL d   1      15.568  -0.254 -20.227  0.00  0.00    -0.043 I 
ATOM     31  C   UNL d   1      12.666  -0.514 -21.138  0.00  0.00     0.006 A 
ENDBRANCH  20  22
ENDBRANCH  18  19
ENDBRANCH  17  18
ENDBRANCH   1  17
TORSDOF 8
