REMARK  8 active torsions:
REMARK  status: ('A' for Active; 'I' for Inactive)
REMARK    1  A    between atoms: C_2  and  C_5 
REMARK    2  A    between atoms: C_7  and  N_8 
REMARK    3  A    between atoms: N_11  and  C_12 
REMARK    4  A    between atoms: C_12  and  C_13 
REMARK    5  A    between atoms: C_13  and  C_14 
REMARK    6  A    between atoms: C_14  and  S_15 
REMARK    7  A    between atoms: S_15  and  C_16 
REMARK    8  A    between atoms: C_26  and  C_27 
ROOT
ATOM      1  N   UNL d   1       9.112   2.665 -16.022  0.00  0.00    -0.330 N 
ATOM      2  C   UNL d   1       8.341   2.249 -14.851  0.00  0.00     0.138 C 
ATOM      3  C   UNL d   1       8.072   3.465 -13.937  0.00  0.00     0.274 C 
ATOM      4  N   UNL d   1       9.330   4.121 -13.553  0.00  0.00     0.141 N 
ATOM      5  C   UNL d   1       9.994   4.586 -14.774  0.00  0.00     0.274 C 
ATOM      6  C   UNL d   1      10.332   3.400 -15.694  0.00  0.00     0.138 C 
ENDROOT
BRANCH   1   7
ATOM      7  C   UNL d   1       8.705   2.378 -17.343  0.00  0.00     0.143 A 
ATOM      8  N   UNL d   1       7.740   1.450 -17.516  0.00  0.00    -0.214 NA
ATOM      9  C   UNL d   1       7.316   1.181 -18.753  0.00  0.00     0.140 A 
ATOM     10  N   UNL d   1       7.816   1.726 -19.867  0.00  0.00    -0.227 NA
ATOM     11  C   UNL d   1       8.786   2.655 -19.732  0.00  0.00     0.157 A 
ATOM     12  C   UNL d   1       9.260   3.032 -18.462  0.00  0.00     0.060 A 
BRANCH   9  13
ATOM     13  C   UNL d   1       6.340   0.006 -18.930  0.00  0.00     0.052 C 
ATOM     14  C   UNL d   1       7.136  -1.298 -19.108  0.00  0.00     0.008 C 
ATOM     15  C   UNL d   1       5.424   0.236 -20.153  0.00  0.00     0.008 C 
ATOM     16  C   UNL d   1       5.405  -0.123 -17.708  0.00  0.00     0.008 C 
ENDBRANCH   9  13
BRANCH  11  17
ATOM     17  C   UNL d   1       9.338   3.287 -21.008  0.00  0.00     0.435 C 
ATOM     18  F   UNL d   1       9.926   2.351 -21.753  0.00  0.00    -0.165 F 
ATOM     19  F   UNL d   1       8.342   3.837 -21.700  0.00  0.00    -0.165 F 
ATOM     20  F   UNL d   1      10.239   4.236 -20.748  0.00  0.00    -0.165 F 
ENDBRANCH  11  17
ENDBRANCH   1   7
BRANCH   4  21
ATOM     21  C   UNL d   1       9.045   5.258 -12.677  0.00  0.00     0.251 C 
BRANCH  21  22
ATOM     22  C   UNL d   1       8.868   4.803 -11.218  0.00  0.00     0.047 C 
BRANCH  22  23
ATOM     23  C   UNL d   1       8.366   5.920 -10.307  0.00  0.00     0.067 C 
BRANCH  23  24
ATOM     24  S   UNL d   1       8.741   5.590  -8.551  0.00  0.00    -0.075 SA
BRANCH  24  25
ATOM     25  C   UNL d   1       9.918   6.878  -8.168  0.00  0.00     0.192 A 
ATOM     26  N   UNL d   1      10.807   7.174  -9.115  0.00  0.00    -0.195 NA
ATOM     27  C   UNL d   1      11.740   8.099  -8.820  0.00  0.00     0.216 A 
ATOM     28  C   UNL d   1      11.768   8.733  -7.564  0.00  0.00     0.068 A 
ATOM     29  O   UNL d   1      12.671   8.390  -9.768  0.00  0.00    -0.169 OA
ATOM     30  C   UNL d   1      10.774   8.344  -6.646  0.00  0.00     0.105 A 
ATOM     31  N   UNL d   1       9.851   7.404  -6.942  0.00  0.00    -0.220 NA
ENDBRANCH  24  25
ENDBRANCH  23  24
ENDBRANCH  22  23
ENDBRANCH  21  22
ENDBRANCH   4  21
TORSDOF 8
