REMARK  8 active torsions:
REMARK  status: ('A' for Active; 'I' for Inactive)
REMARK    1  A    between atoms: O_2  and  C_3 
REMARK    2  A    between atoms: C_8  and  N_9 
REMARK    3  A    between atoms: N_12  and  C_13 
REMARK    4  A    between atoms: C_13  and  C_14 
REMARK    5  A    between atoms: C_14  and  C_15 
REMARK    6  A    between atoms: C_15  and  N_16 
REMARK       I    between atoms: N_16  and  C_17 
REMARK    7  A    between atoms: C_17  and  C_19 
REMARK    8  A    between atoms: C_19  and  C_20 
ROOT
ATOM      1  C   UNL d   1       9.211   7.809 -11.731  0.00  0.00     0.062 C 
ENDROOT
BRANCH   1   2
ATOM      2  C   UNL d   1       9.032   6.292 -11.541  0.00  0.00     0.253 C 
BRANCH   2   3
ATOM      3  N   UNL d   1       8.662   5.627 -12.767  0.00  0.00     0.141 N 
ATOM      4  C   UNL d   1       8.082   4.335 -12.385  0.00  0.00     0.274 C 
ATOM      5  C   UNL d   1       7.599   3.588 -13.629  0.00  0.00     0.137 C 
ATOM      6  N   UNL d   1       8.684   3.454 -14.598  0.00  0.00    -0.343 N 
ATOM      7  C   UNL d   1       9.388   4.690 -14.904  0.00  0.00     0.137 C 
ATOM      8  C   UNL d   1       9.842   5.354 -13.601  0.00  0.00     0.274 C 
BRANCH   6   9
ATOM      9  C   UNL d   1       9.051   2.212 -15.168  0.00  0.00     0.079 A 
ATOM     10  C   UNL d   1       8.069   1.242 -15.498  0.00  0.00     0.110 A 
ATOM     11  C   UNL d   1       8.500  -0.007 -16.021  0.00  0.00     0.026 A 
ATOM     12  C   UNL d   1       9.861  -0.268 -16.263  0.00  0.00     0.002 A 
ATOM     13  C   UNL d   1      10.816   0.709 -15.986  0.00  0.00     0.002 A 
ATOM     14  C   UNL d   1      10.416   1.937 -15.418  0.00  0.00     0.019 A 
BRANCH  10  15
ATOM     15  O   UNL d   1       6.732   1.530 -15.331  0.00  0.00    -0.327 OA
ATOM     16  C   UNL d   1       5.819   0.443 -15.265  0.00  0.00     0.181 C 
ENDBRANCH  10  15
ENDBRANCH   6   9
ENDBRANCH   2   3
ENDBRANCH   1   2
BRANCH   1  17
ATOM     17  C   UNL d   1       9.620   8.557 -10.442  0.00  0.00     0.131 C 
BRANCH  17  18
ATOM     18  N   UNL d   1      10.383   7.742  -9.518  0.00  0.00    -0.238 NA
ATOM     19  C   UNL d   1       9.895   7.128  -8.428  0.00  0.00     0.256 C 
ATOM     20  O   UNL d   1       8.716   7.044  -8.116  0.00  0.00    -0.270 OA
BRANCH  19  21
ATOM     21  C   UNL d   1      10.918   6.572  -7.487  0.00  0.00     0.116 C 
BRANCH  21  22
ATOM     22  C   UNL d   1      11.090   7.426  -6.271  0.00  0.00    -0.013 A 
ATOM     23  C   UNL d   1      11.562   6.794  -5.103  0.00  0.00    -0.004 A 
ATOM     24  C   UNL d   1      11.828   7.574  -3.967  0.00  0.00    -0.000 A 
ATOM     25  C   UNL d   1      11.594   8.969  -4.010  0.00  0.00    -0.000 A 
ATOM     26  C   UNL d   1      12.365   6.980  -2.811  0.00  0.00    -0.000 A 
ATOM     27  C   UNL d   1      11.115   9.598  -5.168  0.00  0.00    -0.000 A 
ATOM     28  C   UNL d   1      11.852   9.749  -2.887  0.00  0.00    -0.000 A 
ATOM     29  C   UNL d   1      10.856   8.826  -6.301  0.00  0.00    -0.004 A 
ATOM     30  C   UNL d   1      12.334   9.165  -1.717  0.00  0.00    -0.000 A 
ATOM     31  C   UNL d   1      12.608   7.795  -1.699  0.00  0.00    -0.000 A 
ENDBRANCH  21  22
ENDBRANCH  19  21
ENDBRANCH  17  18
ENDBRANCH   1  17
TORSDOF 8
