REMARK  8 active torsions:
REMARK  status: ('A' for Active; 'I' for Inactive)
REMARK    1  A    between atoms: C_3  and  S_4 
REMARK    2  A    between atoms: S_4  and  C_5 
REMARK    3  A    between atoms: C_5  and  C_6 
REMARK    4  A    between atoms: C_6  and  C_7 
REMARK    5  A    between atoms: C_7  and  N_8 
REMARK    6  A    between atoms: C_13  and  C_14 
REMARK    7  A    between atoms: C_17  and  C_18 
REMARK    8  A    between atoms: C_27  and  C_28 
ROOT
ATOM      1  C   UNL d   1       7.851  -1.080 -18.971  0.00  0.00     0.055 A 
ATOM      2  C   UNL d   1       7.790  -1.435 -20.331  0.00  0.00     0.007 A 
ATOM      3  C   UNL d   1       6.644  -2.106 -20.797  0.00  0.00     0.030 A 
ATOM      4  C   UNL d   1       5.605  -2.393 -19.885  0.00  0.00     0.149 A 
ATOM      5  C   UNL d   1       4.413  -3.083 -20.350  0.00  0.00     0.120 C 
ATOM      6  N   UNL d   1       3.467  -3.633 -20.724  0.00  0.00    -0.190 NA
ATOM      7  N   UNL d   1       5.667  -2.056 -18.579  0.00  0.00    -0.234 NA
ATOM      8  C   UNL d   1       6.770  -1.420 -18.135  0.00  0.00     0.103 A 
ENDROOT
BRANCH   1   9
ATOM      9  C   UNL d   1       9.007  -0.398 -18.427  0.00  0.00     0.168 A 
ATOM     10  N   UNL d   1       9.342   0.885 -18.681  0.00  0.00    -0.289 N 
ATOM     11  C   UNL d   1       8.676   1.845 -19.547  0.00  0.00     0.134 C 
ATOM     12  C   UNL d   1      10.441   1.042 -17.917  0.00  0.00     0.193 A 
ATOM     13  N   UNL d   1      10.784  -0.067 -17.259  0.00  0.00    -0.122 NA
ATOM     14  N   UNL d   1       9.849  -1.010 -17.595  0.00  0.00    -0.128 NA
BRANCH  12  15
ATOM     15  S   UNL d   1      11.327   2.571 -17.816  0.00  0.00    -0.075 SA
BRANCH  15  16
ATOM     16  C   UNL d   1      12.220   2.312 -16.249  0.00  0.00     0.067 C 
BRANCH  16  17
ATOM     17  C   UNL d   1      11.292   2.345 -15.026  0.00  0.00     0.047 C 
BRANCH  17  18
ATOM     18  C   UNL d   1      10.737   3.748 -14.746  0.00  0.00     0.251 C 
BRANCH  18  19
ATOM     19  N   UNL d   1       9.552   3.686 -13.898  0.00  0.00     0.137 N 
ATOM     20  C   UNL d   1       9.081   5.032 -13.658  0.00  0.00     0.251 C 
ATOM     21  C   UNL d   1       7.687   4.856 -13.088  0.00  0.00     0.037 A 
ATOM     22  C   UNL d   1       7.228   3.552 -13.678  0.00  0.00     0.038 C 
ATOM     23  C   UNL d   1       7.368   5.295 -11.668  0.00  0.00     0.024 A 
ATOM     24  C   UNL d   1       6.701   5.995 -12.829  0.00  0.00     0.007 A 
ATOM     25  C   UNL d   1       8.397   3.063 -14.518  0.00  0.00     0.250 C 
BRANCH  23  26
ATOM     26  C   UNL d   1       8.446   5.941 -10.828  0.00  0.00    -0.022 A 
ATOM     27  C   UNL d   1       9.069   7.133 -11.249  0.00  0.00    -0.004 A 
ATOM     28  C   UNL d   1      10.064   7.752 -10.473  0.00  0.00     0.004 A 
ATOM     29  C   UNL d   1      10.452   7.184  -9.247  0.00  0.00     0.071 A 
ATOM     30  C   UNL d   1       9.841   5.987  -8.815  0.00  0.00     0.004 A 
ATOM     31  C   UNL d   1       8.848   5.366  -9.597  0.00  0.00    -0.004 A 
BRANCH  29  32
ATOM     32  C   UNL d   1      11.527   7.881  -8.433  0.00  0.00     0.419 C 
ATOM     33  F   UNL d   1      11.810   7.198  -7.321  0.00  0.00    -0.166 F 
ATOM     34  F   UNL d   1      12.641   7.994  -9.159  0.00  0.00    -0.166 F 
ATOM     35  F   UNL d   1      11.107   9.100  -8.094  0.00  0.00    -0.166 F 
ENDBRANCH  29  32
ENDBRANCH  23  26
ENDBRANCH  18  19
ENDBRANCH  17  18
ENDBRANCH  16  17
ENDBRANCH  15  16
ENDBRANCH  12  15
ENDBRANCH   1   9
TORSDOF 8
