REMARK  0 active torsions:
REMARK  status: ('A' for Active; 'I' for Inactive)
ROOT
ATOM      1  C   UNL d   1       8.421   6.026 -12.508  0.00  0.00     0.030 C 
ATOM      2  C   UNL d   1       8.928   6.065 -11.080  0.00  0.00    -0.026 A 
ATOM      3  C   UNL d   1       8.807   4.949 -10.233  0.00  0.00    -0.004 A 
ATOM      4  C   UNL d   1       9.236   5.017  -8.886  0.00  0.00    -0.000 A 
ATOM      5  C   UNL d   1       9.792   6.204  -8.360  0.00  0.00    -0.001 A 
ATOM      6  C   UNL d   1      10.252   6.418  -7.060  0.00  0.00    -0.000 A 
ATOM      7  C   UNL d   1      10.804   7.616  -6.569  0.00  0.00    -0.000 A 
ATOM      8  C   UNL d   1      10.869   8.667  -7.486  0.00  0.00    -0.004 A 
ATOM      9  C   UNL d   1      11.378   9.876  -7.059  0.00  0.00    -0.000 A 
ATOM     10  C   UNL d   1      11.831  10.065  -5.776  0.00  0.00    -0.000 A 
ATOM     11  C   UNL d   1      11.801   9.036  -4.839  0.00  0.00    -0.000 A 
ATOM     12  C   UNL d   1      12.274   9.247  -3.526  0.00  0.00     0.000 A 
ATOM     13  C   UNL d   1      12.268   8.206  -2.584  0.00  0.00     0.000 A 
ATOM     14  C   UNL d   1      11.787   6.947  -2.969  0.00  0.00     0.000 A 
ATOM     15  C   UNL d   1      11.312   6.744  -4.276  0.00  0.00    -0.000 A 
ATOM     16  C   UNL d   1      11.295   7.784  -5.236  0.00  0.00    -0.000 A 
ATOM     17  C   UNL d   1      10.436   8.487  -8.807  0.00  0.00    -0.022 A 
ATOM     18  C   UNL d   1       9.903   7.284  -9.223  0.00  0.00    -0.008 A 
ATOM     19  C   UNL d   1       9.468   7.230 -10.549  0.00  0.00    -0.026 A 
ATOM     20  C   UNL d   1       9.657   8.599 -11.104  0.00  0.00     0.030 A 
ATOM     21  C   UNL d   1      10.357   9.396  -9.988  0.00  0.00     0.031 A 
ENDROOT
TORSDOF 0
