REMARK  6 active torsions:
REMARK  status: ('A' for Active; 'I' for Inactive)
REMARK    1  A    between atoms: C_8  and  C_9 
REMARK    2  A    between atoms: C_9  and  C_10 
REMARK    3  A    between atoms: C_10  and  N_11 
REMARK    4  A    between atoms: N_11  and  C_12 
REMARK    5  A    between atoms: C_12  and  C_13 
REMARK    6  A    between atoms: C_16  and  C_17 
ROOT
ATOM      1  N   UNL d   1       8.843   5.431  -8.812  0.00  0.00     0.346 N 
ENDROOT
BRANCH   1   2
ATOM      2  C   UNL d   1       9.066   6.407  -7.748  0.00  0.00     0.295 C 
BRANCH   2   3
ATOM      3  C   UNL d   1      10.567   6.675  -7.510  0.00  0.00     0.066 C 
BRANCH   3   4
ATOM      4  C   UNL d   1      10.793   7.875  -6.656  0.00  0.00     0.001 A 
ATOM      5  C   UNL d   1      10.572   9.169  -7.037  0.00  0.00     0.095 A 
ATOM      6  N   UNL d   1      10.925  10.012  -5.998  0.00  0.00    -0.244 NA
ATOM      7  C   UNL d   1      11.353   9.276  -4.909  0.00  0.00     0.081 A 
ATOM      8  C   UNL d   1      11.760   9.652  -3.616  0.00  0.00     0.019 A 
ATOM      9  C   UNL d   1      11.311   7.917  -5.319  0.00  0.00     0.015 A 
ATOM     10  C   UNL d   1      12.241   8.670  -2.735  0.00  0.00    -0.003 A 
ATOM     11  C   UNL d   1      12.225   7.321  -3.122  0.00  0.00    -0.022 A 
ATOM     12  C   UNL d   1      12.662   6.263  -2.152  0.00  0.00     0.031 C 
ATOM     13  C   UNL d   1      11.746   6.948  -4.394  0.00  0.00    -0.003 A 
ENDBRANCH   3   4
ENDBRANCH   2   3
ENDBRANCH   1   2
BRANCH   1  14
ATOM     14  C   UNL d   1       9.214   6.005 -10.097  0.00  0.00     0.341 C 
BRANCH  14  15
ATOM     15  C   UNL d   1       8.564   5.319 -11.245  0.00  0.00     0.114 A 
ATOM     16  O   UNL d   1       9.377   4.573 -12.040  0.00  0.00    -0.309 OA
ATOM     17  C   UNL d   1       8.584   4.043 -13.015  0.00  0.00     0.100 A 
ATOM     18  C   UNL d   1       7.288   4.447 -12.843  0.00  0.00     0.026 A 
ATOM     19  C   UNL d   1       7.278   5.289 -11.700  0.00  0.00     0.024 A 
BRANCH  17  20
ATOM     20  C   UNL d   1       9.226   3.177 -13.991  0.00  0.00     0.023 A 
ATOM     21  C   UNL d   1       8.475   2.191 -14.668  0.00  0.00     0.004 A 
ATOM     22  C   UNL d   1       9.090   1.330 -15.598  0.00  0.00     0.028 A 
ATOM     23  C   UNL d   1      10.466   1.452 -15.864  0.00  0.00     0.131 A 
ATOM     24  C   UNL d   1      11.224   2.434 -15.196  0.00  0.00     0.028 A 
ATOM     25  O   UNL d   1      11.060   0.620 -16.765  0.00  0.00    -0.190 OA
ATOM     26  C   UNL d   1      10.610   3.278 -14.252  0.00  0.00     0.004 A 
ENDBRANCH  17  20
ENDBRANCH  14  15
ENDBRANCH   1  14
TORSDOF 6
