REMARK  6 active torsions:
REMARK  status: ('A' for Active; 'I' for Inactive)
REMARK    1  A    between atoms: O_2  and  C_3 
REMARK    2  A    between atoms: C_6  and  C_7 
REMARK    3  A    between atoms: C_7  and  N_8 
REMARK    4  A    between atoms: C_11  and  C_12 
REMARK    5  A    between atoms: C_18  and  O_19 
REMARK    6  A    between atoms: O_19  and  C_20 
ROOT
ATOM      1  N   UNL d   1       9.297   5.917 -12.044  0.00  0.00     0.146 N 
ATOM      2  C   UNL d   1       9.341   4.552 -11.544  0.00  0.00     0.277 C 
ATOM      3  C   UNL d   1       9.793   3.593 -12.633  0.00  0.00     0.005 C 
ATOM      4  C   UNL d   1       9.829   3.837 -13.954  0.00  0.00    -0.021 C 
ATOM      5  C   UNL d   1       9.368   5.196 -14.382  0.00  0.00     0.061 C 
ATOM      6  C   UNL d   1       8.547   5.929 -13.294  0.00  0.00     0.256 C 
ENDROOT
BRANCH   4   7
ATOM      7  C   UNL d   1      10.262   2.791 -14.913  0.00  0.00     0.017 A 
ATOM      8  C   UNL d   1      11.002   3.031 -16.115  0.00  0.00     0.021 A 
ATOM      9  C   UNL d   1      11.258   1.771 -16.728  0.00  0.00     0.082 A 
ATOM     10  C   UNL d   1      11.483   4.169 -16.775  0.00  0.00     0.026 A 
ATOM     11  N   UNL d   1      10.641   0.817 -15.909  0.00  0.00    -0.244 NA
ATOM     12  C   UNL d   1      11.979   1.663 -17.930  0.00  0.00     0.021 A 
ATOM     13  C   UNL d   1      10.053   1.444 -14.799  0.00  0.00     0.099 A 
ATOM     14  C   UNL d   1      12.509   2.839 -18.537  0.00  0.00     0.026 A 
ATOM     15  C   UNL d   1      12.249   4.101 -17.942  0.00  0.00     0.094 A 
BRANCH  15  16
ATOM     16  O   UNL d   1      12.758   5.196 -18.608  0.00  0.00    -0.333 OA
BRANCH  16  17
ATOM     17  C   UNL d   1      12.290   6.522 -18.321  0.00  0.00     0.121 C 
ATOM     18  C   UNL d   1      12.723   7.092 -16.935  0.00  0.00     0.033 C 
ATOM     19  C   UNL d   1      10.777   6.594 -18.684  0.00  0.00     0.033 C 
ENDBRANCH  16  17
ENDBRANCH  15  16
ENDBRANCH   4   7
BRANCH   1  20
ATOM     20  C   UNL d   1       8.659   6.772 -11.056  0.00  0.00     0.277 C 
BRANCH  20  21
ATOM     21  C   UNL d   1       9.499   7.019  -9.821  0.00  0.00     0.011 A 
ATOM     22  C   UNL d   1       9.244   6.320  -8.626  0.00  0.00    -0.000 A 
ATOM     23  C   UNL d   1      10.011   6.594  -7.478  0.00  0.00     0.024 A 
ATOM     24  C   UNL d   1      11.034   7.575  -7.516  0.00  0.00     0.094 A 
ATOM     25  C   UNL d   1      11.278   8.264  -8.722  0.00  0.00     0.024 A 
ATOM     26  C   UNL d   1      10.514   7.991  -9.868  0.00  0.00    -0.000 A 
BRANCH  24  27
ATOM     27  O   UNL d   1      11.817   7.915  -6.439  0.00  0.00    -0.328 OA
ATOM     28  C   UNL d   1      11.630   7.200  -5.225  0.00  0.00     0.181 C 
ENDBRANCH  24  27
ENDBRANCH  20  21
ENDBRANCH   1  20
TORSDOF 6
