REMARK  2 active torsions:
REMARK  status: ('A' for Active; 'I' for Inactive)
REMARK    1  A    between atoms: N1_5  and  C1*_6 
REMARK    2  A    between atoms: C4*_8  and  C5*_9 
ROOT
ATOM      1  C1*  C1 d   1      11.073   7.173  -6.736  0.00  0.00     0.242 C 
ATOM      2  O4*  C1 d   1      11.868   7.737  -7.715  0.00  0.00    -0.331 OA
ATOM      3  C4*  C1 d   1      11.211   7.554  -8.959  0.00  0.00     0.183 C 
ATOM      4  C3*  C1 d   1       9.719   7.688  -8.623  0.00  0.00     0.216 C 
ATOM      5  O3*  C1 d   1       9.066   6.697  -9.382  0.00  0.00    -0.218 OA
ATOM      6  C2*  C1 d   1       9.595   7.408  -7.123  0.00  0.00     0.234 C 
ATOM      7  O2*  C1 d   1       8.953   8.486  -6.468  0.00  0.00    -0.216 OA
ENDROOT
BRANCH   1   8
ATOM      8  N1   C1 d   1      11.447   7.721  -5.374  0.00  0.00    -0.254 N 
ATOM      9  C6   C1 d   1      11.605   6.832  -4.311  0.00  0.00     0.085 A 
ATOM     10  C5   C1 d   1      11.866   7.229  -3.069  0.00  0.00     0.060 A 
ATOM     11  C4   C1 d   1      12.021   8.650  -2.868  0.00  0.00     0.190 A 
ATOM     12  N4   C1 d   1      12.264   9.165  -1.663  0.00  0.00    -0.127 N 
ATOM     13  N3   C1 d   1      11.920   9.490  -3.873  0.00  0.00    -0.171 NA
ATOM     14  C2   C1 d   1      11.647   9.114  -5.142  0.00  0.00     0.353 A 
ATOM     15  O2   C1 d   1      11.589   9.961  -6.037  0.00  0.00    -0.244 OA
ENDBRANCH   1   8
BRANCH   3  16
ATOM     16  C5*  C1 d   1      11.672   8.574 -10.005  0.00  0.00     0.214 C 
ATOM     17  O5*  C1 d   1      13.047   8.380 -10.230  0.00  0.00    -0.218 OA
ENDBRANCH   3  16
TORSDOF 2
