REMARK  7 active torsions:
REMARK  status: ('A' for Active; 'I' for Inactive)
REMARK    1  A    between atoms: C_8  and  O_9 
REMARK    2  A    between atoms: O_9  and  C_10 
REMARK    3  A    between atoms: C_10  and  C_11 
REMARK    4  A    between atoms: C_11  and  C_12 
REMARK    5  A    between atoms: C_12  and  C_13 
REMARK    6  A    between atoms: C_13  and  N_14 
REMARK    7  A    between atoms: N_17  and  C_18 
ROOT
ATOM      1  N   UNL d   1       8.216   2.975 -14.226  0.00  0.00     0.141 N 
ATOM      2  C   UNL d   1       9.004   2.846 -15.463  0.00  0.00     0.274 C 
ATOM      3  C   UNL d   1       8.862   1.427 -16.043  0.00  0.00     0.137 C 
ATOM      4  N   UNL d   1       7.453   1.125 -16.237  0.00  0.00    -0.343 N 
ATOM      5  C   UNL d   1       6.620   1.294 -15.050  0.00  0.00     0.137 C 
ATOM      6  C   UNL d   1       6.793   2.699 -14.481  0.00  0.00     0.274 C 
ENDROOT
BRANCH   1   7
ATOM      7  C   UNL d   1       8.358   4.330 -13.710  0.00  0.00     0.251 C 
BRANCH   7   8
ATOM      8  C   UNL d   1       8.021   4.417 -12.214  0.00  0.00     0.038 C 
BRANCH   8   9
ATOM      9  C   UNL d   1       8.039   5.853 -11.665  0.00  0.00     0.035 C 
BRANCH   9  10
ATOM     10  C   UNL d   1       9.284   6.656 -12.116  0.00  0.00     0.149 C 
BRANCH  10  11
ATOM     11  O   UNL d   1       9.534   7.805 -11.314  0.00  0.00    -0.331 OA
BRANCH  11  12
ATOM     12  C   UNL d   1       9.908   7.594 -10.014  0.00  0.00     0.096 A 
ATOM     13  C   UNL d   1      10.026   6.287  -9.492  0.00  0.00     0.024 A 
ATOM     14  C   UNL d   1      10.283   6.083  -8.142  0.00  0.00     0.004 A 
ATOM     15  C   UNL d   1      10.509   7.178  -7.293  0.00  0.00     0.018 A 
ATOM     16  C   UNL d   1      10.852   6.994  -5.890  0.00  0.00     0.006 A 
ATOM     17  C   UNL d   1      10.437   8.482  -7.799  0.00  0.00     0.087 A 
ATOM     18  C   UNL d   1      11.105   8.052  -5.092  0.00  0.00     0.063 A 
ATOM     19  C   UNL d   1      11.002   9.424  -5.594  0.00  0.00     0.279 A 
ATOM     20  O   UNL d   1      11.127  10.398  -4.877  0.00  0.00    -0.265 OA
ATOM     21  N   UNL d   1      10.696   9.562  -6.903  0.00  0.00    -0.208 NA
ATOM     22  C   UNL d   1      10.130   8.704  -9.155  0.00  0.00     0.043 A 
ENDBRANCH  11  12
ENDBRANCH  10  11
ENDBRANCH   9  10
ENDBRANCH   8   9
ENDBRANCH   7   8
ENDBRANCH   1   7
BRANCH   4  23
ATOM     23  C   UNL d   1       6.949   0.627 -17.461  0.00  0.00     0.081 A 
ATOM     24  C   UNL d   1       5.934  -0.352 -17.474  0.00  0.00     0.132 A 
ATOM     25  C   UNL d   1       5.408  -0.806 -18.723  0.00  0.00     0.118 A 
ATOM     26  O   UNL d   1       5.463  -0.869 -16.286  0.00  0.00    -0.325 OA
ATOM     27  C   UNL d   1       5.934  -0.314 -19.924  0.00  0.00     0.026 A 
ATOM     28  O   UNL d   1       4.396  -1.726 -18.774  0.00  0.00    -0.326 OA
ATOM     29  C   UNL d   1       6.962   0.639 -19.910  0.00  0.00     0.004 A 
ATOM     30  C   UNL d   1       7.466   1.114 -18.678  0.00  0.00     0.019 A 
ATOM     31  C   UNL d   1       3.705  -1.923 -17.548  0.00  0.00     0.181 C 
ATOM     32  C   UNL d   1       4.712  -2.072 -16.393  0.00  0.00     0.182 C 
ENDBRANCH   4  23
TORSDOF 7
