REMARK  3 active torsions:
REMARK  status: ('A' for Active; 'I' for Inactive)
REMARK    1  A    between atoms: C_4  and  C_5 
REMARK    2  A    between atoms: C_5  and  N_6 
REMARK    3  A    between atoms: C_9  and  C_10 
ROOT
ATOM      1  N   UNL d   1       7.918   4.508 -13.037  0.00  0.00     0.137 N 
ATOM      2  C   UNL d   1       8.561   3.956 -14.232  0.00  0.00     0.251 C 
ATOM      3  C   UNL d   1       8.167   2.479 -14.449  0.00  0.00     0.041 C 
ATOM      4  C   UNL d   1       6.642   2.301 -14.517  0.00  0.00     0.047 C 
ATOM      5  C   UNL d   1       5.973   3.001 -13.311  0.00  0.00     0.041 C 
ATOM      6  C   UNL d   1       6.459   4.442 -13.156  0.00  0.00     0.251 C 
ENDROOT
BRANCH   1   7
ATOM      7  C   UNL d   1       8.327   5.901 -12.803  0.00  0.00     0.251 C 
BRANCH   7   8
ATOM      8  C   UNL d   1       9.048   6.062 -11.450  0.00  0.00     0.047 C 
ATOM      9  C   UNL d   1       8.215   5.493 -10.269  0.00  0.00     0.072 C 
ATOM     10  C   UNL d   1       8.905   5.629  -8.909  0.00  0.00     0.176 C 
ATOM     11  O   UNL d   1       8.768   4.771  -8.055  0.00  0.00    -0.291 OA
ATOM     12  C   UNL d   1       9.700   6.852  -8.739  0.00  0.00     0.071 A 
ATOM     13  C   UNL d   1       9.944   7.695  -9.765  0.00  0.00     0.085 A 
ATOM     14  C   UNL d   1      10.342   7.379  -7.594  0.00  0.00     0.126 A 
ATOM     15  C   UNL d   1       9.480   7.536 -11.172  0.00  0.00     0.050 C 
ATOM     16  N   UNL d   1      10.677   8.723  -9.213  0.00  0.00    -0.152 NA
ATOM     17  N   UNL d   1      10.942   8.531  -7.894  0.00  0.00    -0.147 NA
ENDBRANCH   7   8
ENDBRANCH   1   7
BRANCH   4  18
ATOM     18  C   UNL d   1       6.232   0.849 -14.635  0.00  0.00     0.087 A 
ATOM     19  C   UNL d   1       5.756   0.095 -15.739  0.00  0.00     0.041 A 
ATOM     20  C   UNL d   1       5.507  -1.212 -15.323  0.00  0.00     0.129 A 
ATOM     21  C   UNL d   1       5.527   0.435 -17.089  0.00  0.00     0.006 A 
ATOM     22  O   UNL d   1       5.856  -1.244 -13.991  0.00  0.00    -0.211 OA
ATOM     23  C   UNL d   1       5.044  -2.219 -16.184  0.00  0.00     0.057 A 
ATOM     24  N   UNL d   1       6.316   0.038 -13.580  0.00  0.00    -0.131 NA
ATOM     25  C   UNL d   1       4.798  -1.871 -17.528  0.00  0.00     0.142 A 
ATOM     26  F   UNL d   1       4.343  -2.805 -18.399  0.00  0.00    -0.204 F 
ATOM     27  C   UNL d   1       5.033  -0.550 -17.977  0.00  0.00     0.030 A 
ENDBRANCH   4  18
TORSDOF 3
