REMARK  12 active torsions:
REMARK  status: ('A' for Active; 'I' for Inactive)
REMARK    1  A    between atoms: C_2  and  O_3 
REMARK    2  A    between atoms: O_3  and  C_4 
REMARK    3  A    between atoms: C_10  and  C_11 
REMARK    4  A    between atoms: C_13  and  C_14 
REMARK    5  A    between atoms: C_14  and  N_15 
REMARK    6  A    between atoms: N_15  and  C_16 
REMARK    7  A    between atoms: N_15  and  C_18 
REMARK    8  A    between atoms: C_18  and  C_19 
REMARK    9  A    between atoms: C_19  and  C_20 
REMARK   10  A    between atoms: C_20  and  S_21 
REMARK   11  A    between atoms: S_21  and  C_22 
REMARK   12  A    between atoms: C_25  and  C_26 
ROOT
ATOM      1  N   UNL d   1      10.431   2.640 -15.820  0.00  0.00     0.137 N 
ENDROOT
BRANCH   1   2
ATOM      2  C   UNL d   1       9.806   1.325 -15.610  0.00  0.00     0.251 C 
BRANCH   2   3
ATOM      3  C   UNL d   1       8.397   1.258 -16.197  0.00  0.00     0.038 A 
ATOM      4  C   UNL d   1       7.888   0.004 -16.865  0.00  0.00     0.026 A 
ATOM      5  C   UNL d   1       8.214   1.221 -17.700  0.00  0.00     0.007 A 
BRANCH   4   6
ATOM      6  C   UNL d   1       6.455  -0.420 -16.686  0.00  0.00     0.002 A 
ATOM      7  C   UNL d   1       5.695  -0.814 -17.814  0.00  0.00     0.090 A 
ATOM      8  C   UNL d   1       4.348  -1.211 -17.634  0.00  0.00     0.026 A 
ATOM      9  C   UNL d   1       3.787  -1.222 -16.343  0.00  0.00     0.032 A 
ATOM     10  C   UNL d   1       4.536  -0.822 -15.228  0.00  0.00     0.140 A 
ATOM     11  F   UNL d   1       3.971  -0.808 -13.993  0.00  0.00    -0.204 F 
ATOM     12  C   UNL d   1       5.876  -0.429 -15.397  0.00  0.00     0.027 A 
BRANCH   7  13
ATOM     13  O   UNL d   1       6.331  -0.821 -19.042  0.00  0.00    -0.331 OA
BRANCH  13  14
ATOM     14  C   UNL d   1       5.558  -0.859 -20.238  0.00  0.00     0.149 C 
ATOM     15  C   UNL d   1       4.865   0.498 -20.462  0.00  0.00     0.035 C 
ENDBRANCH  13  14
ENDBRANCH   7  13
ENDBRANCH   4   6
ENDBRANCH   2   3
ENDBRANCH   1   2
BRANCH   1  16
ATOM     16  C   UNL d   1      11.722   2.702 -15.141  0.00  0.00     0.250 C 
ATOM     17  C   UNL d   1      12.573   3.907 -15.583  0.00  0.00     0.037 C 
ENDBRANCH   1  16
BRANCH   1  18
ATOM     18  C   UNL d   1       9.561   3.769 -15.481  0.00  0.00     0.251 C 
BRANCH  18  19
ATOM     19  C   UNL d   1       9.208   3.837 -13.978  0.00  0.00     0.047 C 
BRANCH  19  20
ATOM     20  C   UNL d   1       7.990   4.709 -13.689  0.00  0.00     0.067 C 
BRANCH  20  21
ATOM     21  S   UNL d   1       7.593   4.682 -11.912  0.00  0.00    -0.075 SA
BRANCH  21  22
ATOM     22  C   UNL d   1       8.653   5.950 -11.306  0.00  0.00     0.193 A 
ATOM     23  N   UNL d   1       9.076   6.009 -10.025  0.00  0.00    -0.289 N 
ATOM     24  C   UNL d   1       9.731   7.189 -10.011  0.00  0.00     0.167 A 
ATOM     25  C   UNL d   1       8.835   5.082  -8.930  0.00  0.00     0.134 C 
ATOM     26  N   UNL d   1       9.770   7.791 -11.204  0.00  0.00    -0.128 NA
ATOM     27  N   UNL d   1       9.065   6.973 -12.052  0.00  0.00    -0.122 NA
BRANCH  24  28
ATOM     28  C   UNL d   1      10.347   7.792  -8.840  0.00  0.00     0.036 A 
ATOM     29  C   UNL d   1      11.695   8.196  -8.895  0.00  0.00     0.003 A 
ATOM     30  C   UNL d   1      12.297   8.780  -7.774  0.00  0.00     0.000 A 
ATOM     31  C   UNL d   1      11.556   8.979  -6.590  0.00  0.00     0.000 A 
ATOM     32  C   UNL d   1      10.206   8.586  -6.540  0.00  0.00     0.000 A 
ATOM     33  C   UNL d   1       9.596   7.999  -7.665  0.00  0.00     0.003 A 
ENDBRANCH  24  28
ENDBRANCH  21  22
ENDBRANCH  20  21
ENDBRANCH  19  20
ENDBRANCH  18  19
ENDBRANCH   1  18
TORSDOF 12
