REMARK  12 active torsions:
REMARK  status: ('A' for Active; 'I' for Inactive)
REMARK    1  A    between atoms: O_2  and  C_3 
REMARK    2  A    between atoms: C_6  and  N_7 
REMARK    3  A    between atoms: C_9  and  C_10 
REMARK    4  A    between atoms: C_10  and  C_11 
REMARK    5  A    between atoms: C_11  and  C_12 
REMARK    6  A    between atoms: C_12  and  C_13 
REMARK       I    between atoms: C_13  and  N_15 
REMARK    7  A    between atoms: N_15  and  C_16 
REMARK    8  A    between atoms: C_16  and  C_17 
REMARK    9  A    between atoms: C_17  and  C_18 
REMARK   10  A    between atoms: C_18  and  C_19 
REMARK   11  A    between atoms: C_19  and  N_20 
REMARK   12  A    between atoms: N_23  and  C_24 
ROOT
ATOM      1  C   UNL d   1       7.514   5.270 -11.451  0.00  0.00     0.251 C 
ATOM      2  O   UNL d   1       7.996   4.437 -10.688  0.00  0.00    -0.271 OA
ATOM      3  N   UNL d   1       6.351   5.093 -12.098  0.00  0.00    -0.238 NA
ENDROOT
BRANCH   3   4
ATOM      4  C   UNL d   1       5.762   3.785 -12.359  0.00  0.00     0.129 C 
BRANCH   4   5
ATOM      5  C   UNL d   1       6.533   3.009 -13.463  0.00  0.00     0.029 C 
BRANCH   5   6
ATOM      6  C   UNL d   1       6.059   1.573 -13.712  0.00  0.00     0.037 C 
BRANCH   6   7
ATOM      7  C   UNL d   1       6.852   0.904 -14.856  0.00  0.00     0.251 C 
BRANCH   7   8
ATOM      8  N   UNL d   1       5.954   0.200 -15.754  0.00  0.00     0.141 N 
ATOM      9  C   UNL d   1       6.687  -0.165 -16.973  0.00  0.00     0.274 C 
ATOM     10  C   UNL d   1       5.743  -0.872 -17.962  0.00  0.00     0.137 C 
ATOM     11  N   UNL d   1       5.107  -2.019 -17.338  0.00  0.00    -0.344 N 
ATOM     12  C   UNL d   1       4.469  -1.744 -16.061  0.00  0.00     0.137 C 
ATOM     13  C   UNL d   1       5.436  -1.014 -15.110  0.00  0.00     0.274 C 
BRANCH  11  14
ATOM     14  C   UNL d   1       5.120  -3.307 -17.899  0.00  0.00     0.068 A 
ATOM     15  C   UNL d   1       4.774  -3.538 -19.257  0.00  0.00     0.084 A 
ATOM     16  C   UNL d   1       4.801  -4.849 -19.778  0.00  0.00     0.070 A 
ATOM     17 CL   UNL d   1       4.281  -2.248 -20.305  0.00  0.00    -0.080 Cl
ATOM     18  C   UNL d   1       5.180  -5.928 -18.970  0.00  0.00     0.012 A 
ATOM     19 CL   UNL d   1       4.373  -5.147 -21.426  0.00  0.00    -0.081 Cl
ATOM     20  C   UNL d   1       5.523  -5.710 -17.628  0.00  0.00     0.002 A 
ATOM     21  C   UNL d   1       5.488  -4.407 -17.091  0.00  0.00     0.018 A 
ENDBRANCH  11  14
ENDBRANCH   7   8
ENDBRANCH   6   7
ENDBRANCH   5   6
ENDBRANCH   4   5
ENDBRANCH   3   4
BRANCH   1  22
ATOM     22  C   UNL d   1       8.320   6.525 -11.805  0.00  0.00     0.090 C 
BRANCH  22  23
ATOM     23  C   UNL d   1       9.451   6.168 -12.788  0.00  0.00     0.016 C 
BRANCH  23  24
ATOM     24  C   UNL d   1       9.061   5.299 -14.007  0.00  0.00     0.050 C 
BRANCH  24  25
ATOM     25  C   UNL d   1      10.188   4.793 -14.844  0.00  0.00     0.101 A 
ATOM     26  C   UNL d   1      10.217   3.690 -15.629  0.00  0.00     0.119 A 
ATOM     27  N   UNL d   1      11.470   3.727 -16.207  0.00  0.00    -0.209 N 
ATOM     28  N   UNL d   1      12.154   4.812 -15.790  0.00  0.00    -0.060 NA
ATOM     29  N   UNL d   1      11.381   5.479 -15.004  0.00  0.00    -0.133 NA
BRANCH  27  30
ATOM     30  C   UNL d   1      12.030   2.828 -17.140  0.00  0.00     0.085 A 
ATOM     31  C   UNL d   1      13.112   3.241 -17.944  0.00  0.00     0.021 A 
ATOM     32  C   UNL d   1      13.695   2.352 -18.858  0.00  0.00     0.026 A 
ATOM     33  C   UNL d   1      13.206   1.039 -18.994  0.00  0.00     0.094 A 
ATOM     34  C   UNL d   1      12.107   0.628 -18.196  0.00  0.00     0.026 A 
ATOM     35  C   UNL d   1      11.522   1.515 -17.273  0.00  0.00     0.021 A 
BRANCH  33  36
ATOM     36  O   UNL d   1      13.858   0.226 -19.892  0.00  0.00    -0.328 OA
ATOM     37  C   UNL d   1      13.436  -1.124 -19.993  0.00  0.00     0.181 C 
ENDBRANCH  33  36
ENDBRANCH  27  30
ENDBRANCH  24  25
ENDBRANCH  23  24
ENDBRANCH  22  23
ENDBRANCH   1  22
TORSDOF 12
