REMARK  7 active torsions:
REMARK  status: ('A' for Active; 'I' for Inactive)
REMARK    1  A    between atoms: C_5  and  N_6 
REMARK    2  A    between atoms: N_9  and  C_10 
REMARK    3  A    between atoms: C_10  and  C_11 
REMARK    4  A    between atoms: C_11  and  C_12 
REMARK    5  A    between atoms: C_12  and  C_13 
REMARK    6  A    between atoms: C_13  and  O_14 
REMARK    7  A    between atoms: O_14  and  C_15 
ROOT
ATOM      1  N   UNL d   1       7.233   2.007 -14.519  0.00  0.00    -0.343 N 
ATOM      2  C   UNL d   1       6.242   2.476 -13.556  0.00  0.00     0.137 C 
ATOM      3  C   UNL d   1       6.510   3.946 -13.200  0.00  0.00     0.274 C 
ATOM      4  N   UNL d   1       7.891   4.117 -12.722  0.00  0.00     0.141 N 
ATOM      5  C   UNL d   1       8.829   3.688 -13.777  0.00  0.00     0.274 C 
ATOM      6  C   UNL d   1       8.619   2.214 -14.150  0.00  0.00     0.137 C 
ENDROOT
BRANCH   4   7
ATOM      7  C   UNL d   1       8.099   5.511 -12.368  0.00  0.00     0.251 C 
BRANCH   7   8
ATOM      8  C   UNL d   1       9.350   5.666 -11.491  0.00  0.00     0.038 C 
BRANCH   8   9
ATOM      9  C   UNL d   1       9.591   7.122 -11.106  0.00  0.00     0.035 C 
BRANCH   9  10
ATOM     10  C   UNL d   1      10.716   7.278 -10.072  0.00  0.00     0.149 C 
BRANCH  10  11
ATOM     11  O   UNL d   1      10.367   6.714  -8.801  0.00  0.00    -0.331 OA
BRANCH  11  12
ATOM     12  C   UNL d   1      10.618   7.485  -7.684  0.00  0.00     0.097 A 
ATOM     13  C   UNL d   1      11.046   6.821  -6.553  0.00  0.00     0.043 A 
ATOM     14  C   UNL d   1      11.375   7.555  -5.374  0.00  0.00     0.086 A 
ATOM     15  N   UNL d   1      11.220   8.955  -5.427  0.00  0.00    -0.228 N 
ATOM     16  C   UNL d   1      11.856   7.279  -4.115  0.00  0.00     0.042 A 
ATOM     17  C   UNL d   1      10.769   9.608  -6.521  0.00  0.00     0.102 A 
ATOM     18  N   UNL d   1      11.567   9.549  -4.244  0.00  0.00    -0.164 NA
ATOM     19  C   UNL d   1      10.424   8.893  -7.637  0.00  0.00     0.045 A 
ATOM     20  C   UNL d   1      11.945   8.546  -3.485  0.00  0.00     0.122 A 
ENDBRANCH  11  12
ENDBRANCH  10  11
ENDBRANCH   9  10
ENDBRANCH   8   9
ENDBRANCH   7   8
ENDBRANCH   4   7
BRANCH   1  21
ATOM     21  C   UNL d   1       6.879   1.341 -15.695  0.00  0.00     0.081 A 
ATOM     22  C   UNL d   1       7.524   1.666 -16.914  0.00  0.00     0.021 A 
ATOM     23  C   UNL d   1       7.168   1.036 -18.109  0.00  0.00     0.031 A 
ATOM     24  C   UNL d   1       6.151   0.070 -18.123  0.00  0.00     0.155 A 
ATOM     25  O   UNL d   1       5.790  -0.524 -19.289  0.00  0.00    -0.188 OA
ATOM     26  C   UNL d   1       5.490  -0.271 -16.918  0.00  0.00     0.143 A 
ATOM     27  C   UNL d   1       5.862   0.346 -15.703  0.00  0.00     0.134 A 
ATOM     28  O   UNL d   1       4.472  -1.204 -16.966  0.00  0.00    -0.324 OA
ATOM     29  O   UNL d   1       5.256   0.002 -14.517  0.00  0.00    -0.325 OA
ATOM     30  C   UNL d   1       4.539  -1.213 -14.543  0.00  0.00     0.182 C 
ATOM     31  C   UNL d   1       3.666  -1.243 -15.794  0.00  0.00     0.182 C 
ENDBRANCH   1  21
TORSDOF 7
