REMARK  7 active torsions:
REMARK  status: ('A' for Active; 'I' for Inactive)
REMARK    1  A    between atoms: C_1  and  C_9 
REMARK    2  A    between atoms: C_2  and  C_3 
REMARK    3  A    between atoms: C_9  and  O_10 
REMARK    4  A    between atoms: O_10  and  C_11 
REMARK    5  A    between atoms: C_11  and  C_12 
REMARK    6  A    between atoms: N_15  and  C_16 
REMARK    7  A    between atoms: C_16  and  C_17 
ROOT
ATOM      1  C   UNL d   1       8.994   6.103 -10.216  0.00  0.00     0.034 C 
ATOM      2  C   UNL d   1       9.850   7.379 -10.418  0.00  0.00     0.038 C 
ATOM      3  C   UNL d   1       9.712   8.384  -9.261  0.00  0.00     0.251 C 
ATOM      4  N   UNL d   1      10.064   7.729  -7.996  0.00  0.00     0.141 N 
ATOM      5  C   UNL d   1       9.119   6.628  -7.758  0.00  0.00     0.251 C 
ATOM      6  C   UNL d   1       9.268   5.542  -8.832  0.00  0.00     0.038 C 
ENDROOT
BRANCH   1   7
ATOM      7  C   UNL d   1       9.217   5.067 -11.298  0.00  0.00     0.143 C 
BRANCH   7   8
ATOM      8  O   UNL d   1       8.966   5.698 -12.545  0.00  0.00    -0.349 OA
BRANCH   8   9
ATOM      9  C   UNL d   1       8.907   4.773 -13.614  0.00  0.00     0.169 C 
BRANCH   9  10
ATOM     10  C   UNL d   1       7.573   4.050 -13.589  0.00  0.00     0.006 C 
ATOM     11  C   UNL d   1       7.229   2.859 -14.120  0.00  0.00    -0.002 C 
BRANCH  11  12
ATOM     12  C   UNL d   1       8.095   1.905 -14.838  0.00  0.00    -0.000 A 
ATOM     13  C   UNL d   1       9.459   1.722 -14.519  0.00  0.00    -0.000 A 
ATOM     14  C   UNL d   1      10.278   0.866 -15.273  0.00  0.00    -0.000 A 
ATOM     15  C   UNL d   1       9.726   0.100 -16.324  0.00  0.00    -0.000 A 
ATOM     16  C   UNL d   1       8.360   0.222 -16.623  0.00  0.00    -0.000 A 
ATOM     17  C   UNL d   1       7.552   1.128 -15.907  0.00  0.00    -0.000 A 
ENDBRANCH  11  12
ENDBRANCH   9  10
ENDBRANCH   8   9
ENDBRANCH   7   8
ENDBRANCH   1   7
BRANCH   4  18
ATOM     18  C   UNL d   1      10.004   8.721  -6.922  0.00  0.00     0.277 C 
BRANCH  18  19
ATOM     19  C   UNL d   1      10.924   8.429  -5.747  0.00  0.00     0.011 A 
ATOM     20  C   UNL d   1      11.818   9.427  -5.296  0.00  0.00    -0.002 A 
ATOM     21  C   UNL d   1      12.657   9.202  -4.196  0.00  0.00    -0.000 A 
ATOM     22  C   UNL d   1      12.662   7.961  -3.529  0.00  0.00    -0.000 A 
ATOM     23  C   UNL d   1      11.786   6.955  -3.965  0.00  0.00    -0.000 A 
ATOM     24  C   UNL d   1      10.924   7.183  -5.044  0.00  0.00    -0.002 A 
ENDBRANCH  18  19
ENDBRANCH   4  18
TORSDOF 7
