REMARK  6 active torsions:
REMARK  status: ('A' for Active; 'I' for Inactive)
REMARK    1  A    between atoms: C_8  and  O_9 
REMARK    2  A    between atoms: O_9  and  C_10 
REMARK    3  A    between atoms: C_10  and  C_11 
REMARK    4  A    between atoms: C_11  and  C_12 
REMARK    5  A    between atoms: C_12  and  N_13 
REMARK    6  A    between atoms: N_16  and  C_17 
ROOT
ATOM      1  N   UNL d   1       9.028   5.538 -12.011  0.00  0.00     0.141 N 
ATOM      2  C   UNL d   1       9.402   4.133 -11.819  0.00  0.00     0.274 C 
ATOM      3  C   UNL d   1       9.791   3.465 -13.137  0.00  0.00     0.137 C 
ATOM      4  N   UNL d   1       8.654   3.548 -14.002  0.00  0.00    -0.343 N 
ATOM      5  C   UNL d   1       8.107   4.874 -14.166  0.00  0.00     0.137 C 
ATOM      6  C   UNL d   1       7.817   5.549 -12.825  0.00  0.00     0.274 C 
ENDROOT
BRANCH   1   7
ATOM      7  C   UNL d   1       8.704   6.170 -10.737  0.00  0.00     0.253 C 
BRANCH   7   8
ATOM      8  C   UNL d   1       9.908   6.240  -9.787  0.00  0.00     0.068 C 
BRANCH   8   9
ATOM      9  C   UNL d   1       9.621   7.082  -8.554  0.00  0.00     0.151 C 
BRANCH   9  10
ATOM     10  O   UNL d   1      10.546   6.669  -7.545  0.00  0.00    -0.331 OA
BRANCH  10  11
ATOM     11  C   UNL d   1      10.860   7.506  -6.498  0.00  0.00     0.094 A 
ATOM     12  C   UNL d   1      10.752   8.923  -6.579  0.00  0.00     0.024 A 
ATOM     13  C   UNL d   1      11.135   9.745  -5.499  0.00  0.00    -0.000 A 
ATOM     14  C   UNL d   1      11.625   9.119  -4.346  0.00  0.00     0.007 A 
ATOM     15  C   UNL d   1      12.088   9.729  -3.056  0.00  0.00     0.155 A 
ATOM     16  C   UNL d   1      11.748   7.750  -4.255  0.00  0.00     0.057 A 
ATOM     17  N   UNL d   1      12.456   8.557  -2.263  0.00  0.00    -0.229 NA
ATOM     18  C   UNL d   1      12.284   7.398  -2.913  0.00  0.00     0.275 A 
ATOM     19  O   UNL d   1      12.553   6.283  -2.486  0.00  0.00    -0.266 OA
ATOM     20  C   UNL d   1      11.375   6.907  -5.316  0.00  0.00     0.029 A 
ENDBRANCH  10  11
ENDBRANCH   9  10
ENDBRANCH   8   9
ENDBRANCH   7   8
ENDBRANCH   1   7
BRANCH   4  21
ATOM     21  C   UNL d   1       8.130   2.434 -14.659  0.00  0.00     0.078 A 
ATOM     22  C   UNL d   1       8.941   1.671 -15.536  0.00  0.00     0.105 A 
ATOM     23  C   UNL d   1       8.394   0.554 -16.215  0.00  0.00     0.002 A 
ATOM     24  O   UNL d   1      10.243   2.090 -15.743  0.00  0.00    -0.330 OA
ATOM     25  C   UNL d   1       7.060   0.187 -15.997  0.00  0.00    -0.002 A 
ATOM     26  C   UNL d   1       9.247  -0.242 -17.186  0.00  0.00     0.031 C 
ATOM     27  C   UNL d   1       6.254   0.923 -15.115  0.00  0.00     0.001 A 
ATOM     28  C   UNL d   1       6.786   2.066 -14.461  0.00  0.00     0.019 A 
ATOM     29  C   UNL d   1      10.532   0.503 -17.552  0.00  0.00     0.037 C 
ATOM     30  C   UNL d   1      11.137   1.138 -16.302  0.00  0.00     0.149 C 
ENDBRANCH   4  21
TORSDOF 6
