REMARK  7 active torsions:
REMARK  status: ('A' for Active; 'I' for Inactive)
REMARK    1  A    between atoms: C_2  and  C_3 
REMARK       I    between atoms: C_2  and  N_11 
REMARK    2  A    between atoms: C_14  and  C_16 
REMARK    3  A    between atoms: C_16  and  N_17 
REMARK    4  A    between atoms: N_17  and  C_18 
REMARK    5  A    between atoms: C_18  and  C_19 
REMARK    6  A    between atoms: C_19  and  O_20 
REMARK    7  A    between atoms: O_20  and  C_21 
ROOT
ATOM      1  O   UNL d   1       5.879   2.480 -13.859  0.00  0.00    -0.267 OA
ATOM      2  C   UNL d   1       7.060   2.816 -14.035  0.00  0.00     0.257 C 
ATOM      3  N   UNL d   1       7.587   3.930 -13.503  0.00  0.00    -0.317 N 
ATOM      4  C   UNL d   1       6.825   4.767 -12.548  0.00  0.00     0.107 C 
ATOM      5  C   UNL d   1       7.601   4.941 -11.230  0.00  0.00     0.059 C 
ATOM      6  C   UNL d   1       9.024   5.491 -11.450  0.00  0.00     0.172 C 
ATOM      7  F   UNL d   1       8.922   6.734 -11.947  0.00  0.00    -0.238 F 
ATOM      8  C   UNL d   1       9.736   4.639 -12.508  0.00  0.00     0.059 C 
ATOM      9  C   UNL d   1       8.909   4.530 -13.804  0.00  0.00     0.107 C 
ENDROOT
BRANCH   6  10
ATOM     10  C   UNL d   1       9.859   5.551 -10.150  0.00  0.00     0.323 C 
BRANCH  10  11
ATOM     11  N   UNL d   1       9.064   6.047  -9.038  0.00  0.00     0.345 N 
BRANCH  11  12
ATOM     12  C   UNL d   1       9.522   7.335  -8.548  0.00  0.00     0.323 C 
BRANCH  12  13
ATOM     13  C   UNL d   1      10.514   7.070  -7.421  0.00  0.00     0.189 C 
BRANCH  13  14
ATOM     14  O   UNL d   1      10.825   8.311  -6.803  0.00  0.00    -0.311 OA
BRANCH  14  15
ATOM     15  C   UNL d   1      11.254   8.305  -5.496  0.00  0.00     0.198 A 
ATOM     16  N   UNL d   1      11.461   7.120  -4.864  0.00  0.00    -0.218 NA
ATOM     17  C   UNL d   1      11.866   7.177  -3.579  0.00  0.00     0.122 A 
ATOM     18  C   UNL d   1      12.072   8.405  -2.921  0.00  0.00     0.120 A 
ATOM     19  N   UNL d   1      11.864   9.587  -3.547  0.00  0.00    -0.237 NA
ATOM     20  C   UNL d   1      11.464   9.531  -4.835  0.00  0.00     0.143 A 
ENDBRANCH  14  15
ENDBRANCH  13  14
ENDBRANCH  12  13
ENDBRANCH  11  12
ENDBRANCH  10  11
ENDBRANCH   6  10
BRANCH   2  21
ATOM     21  C   UNL d   1       7.925   1.905 -14.880  0.00  0.00     0.057 A 
ATOM     22  C   UNL d   1       7.422   1.370 -16.081  0.00  0.00     0.018 A 
ATOM     23  C   UNL d   1       8.219   0.520 -16.876  0.00  0.00     0.085 A 
ATOM     24  C   UNL d   1       9.527   0.187 -16.465  0.00  0.00     0.151 A 
ATOM     25 CL   UNL d   1       7.593  -0.107 -18.358  0.00  0.00    -0.080 Cl
ATOM     26  C   UNL d   1      10.021   0.701 -15.243  0.00  0.00     0.031 A 
ATOM     27  F   UNL d   1      10.314  -0.605 -17.229  0.00  0.00    -0.203 F 
ATOM     28  C   UNL d   1       9.213   1.517 -14.441  0.00  0.00     0.007 A 
ENDBRANCH   2  21
TORSDOF 7
