REMARK  5 active torsions:
REMARK  status: ('A' for Active; 'I' for Inactive)
REMARK    1  A    between atoms: C_2  and  O_3 
REMARK    2  A    between atoms: O_3  and  C_4 
REMARK    3  A    between atoms: C_9  and  N_10 
REMARK    4  A    between atoms: N_13  and  C_14 
REMARK    5  A    between atoms: C_14  and  C_15 
ROOT
ATOM      1  N   UNL d   1       8.468   5.977 -11.147  0.00  0.00    -0.343 N 
ATOM      2  C   UNL d   1       8.403   5.736  -9.705  0.00  0.00     0.137 C 
ATOM      3  C   UNL d   1       9.729   6.152  -9.052  0.00  0.00     0.275 C 
ATOM      4  N   UNL d   1      10.099   7.539  -9.369  0.00  0.00     0.145 N 
ATOM      5  C   UNL d   1      10.255   7.604 -10.815  0.00  0.00     0.275 C 
ATOM      6  C   UNL d   1       8.940   7.288 -11.572  0.00  0.00     0.137 C 
ENDROOT
BRANCH   1   7
ATOM      7  C   UNL d   1       8.079   5.000 -12.056  0.00  0.00     0.079 A 
ATOM      8  C   UNL d   1       9.026   4.450 -12.959  0.00  0.00     0.109 A 
ATOM      9  C   UNL d   1       8.610   3.436 -13.860  0.00  0.00     0.026 A 
ATOM     10  C   UNL d   1       7.276   2.991 -13.857  0.00  0.00     0.002 A 
ATOM     11  C   UNL d   1       6.346   3.519 -12.941  0.00  0.00     0.002 A 
ATOM     12  C   UNL d   1       6.754   4.521 -12.040  0.00  0.00     0.019 A 
BRANCH   8  13
ATOM     13  O   UNL d   1      10.322   4.898 -12.854  0.00  0.00    -0.329 OA
BRANCH  13  14
ATOM     14  C   UNL d   1      11.343   4.372 -13.699  0.00  0.00     0.149 C 
ATOM     15  C   UNL d   1      11.248   5.006 -15.096  0.00  0.00     0.035 C 
ENDBRANCH  13  14
ENDBRANCH   8  13
ENDBRANCH   1   7
BRANCH   4  16
ATOM     16  C   UNL d   1      11.389   7.918  -8.787  0.00  0.00     0.277 C 
BRANCH  16  17
ATOM     17  C   UNL d   1      11.403   7.982  -7.270  0.00  0.00     0.011 A 
ATOM     18  C   UNL d   1      11.468   6.796  -6.504  0.00  0.00    -0.002 A 
ATOM     19  C   UNL d   1      11.472   6.854  -5.098  0.00  0.00    -0.000 A 
ATOM     20  C   UNL d   1      11.427   8.100  -4.447  0.00  0.00    -0.000 A 
ATOM     21  C   UNL d   1      11.294   9.283  -5.202  0.00  0.00    -0.000 A 
ATOM     22  C   UNL d   1      11.292   9.224  -6.609  0.00  0.00    -0.002 A 
ENDBRANCH  16  17
ENDBRANCH   4  16
TORSDOF 5
