REMARK  0 active torsions:
REMARK  status: ('A' for Active; 'I' for Inactive)
ROOT
ATOM      1  O   UNL d   1      10.261   7.832  -9.602  0.00  0.00    -0.236 OA
ATOM      2  C   UNL d   1      10.535   7.987  -8.415  0.00  0.00     0.392 A 
ATOM      3  N   UNL d   1      10.683   7.005  -7.442  0.00  0.00    -0.184 NA
ATOM      4  C   UNL d   1      11.087   7.591  -6.252  0.00  0.00     0.110 A 
ATOM      5  C   UNL d   1      11.441   7.028  -5.015  0.00  0.00     0.033 A 
ATOM      6  C   UNL d   1      11.857   7.919  -3.998  0.00  0.00     0.059 A 
ATOM      7 CL   UNL d   1      12.264   7.299  -2.443  0.00  0.00    -0.082 Cl
ATOM      8  C   UNL d   1      11.890   9.316  -4.233  0.00  0.00     0.014 A 
ATOM      9  C   UNL d   1      11.533   9.849  -5.498  0.00  0.00     0.027 A 
ATOM     10  C   UNL d   1      11.134   8.947  -6.496  0.00  0.00     0.123 A 
ATOM     11  O   UNL d   1      10.788   9.187  -7.796  0.00  0.00    -0.256 OA
ENDROOT
TORSDOF 0
