REMARK  6 active torsions:
REMARK  status: ('A' for Active; 'I' for Inactive)
REMARK    1  A    between atoms: C_2  and  C_3 
REMARK    2  A    between atoms: N_13  and  C_14 
REMARK    3  A    between atoms: C_14  and  C_15 
REMARK    4  A    between atoms: C_15  and  C_17 
REMARK    5  A    between atoms: C_17  and  N_18 
REMARK    6  A    between atoms: N_21  and  C_22 
ROOT
ATOM      1  C   UNL d   1       9.764   5.978 -11.486  0.00  0.00     0.148 C 
ENDROOT
BRANCH   1   2
ATOM      2  N   UNL d   1       9.548   5.128 -12.691  0.00  0.00    -0.247 N 
ATOM      3  C   UNL d   1       8.315   4.776 -13.084  0.00  0.00     0.348 A 
ATOM      4  N   UNL d   1       8.402   4.001 -14.169  0.00  0.00    -0.209 NA
ATOM      5  O   UNL d   1       7.244   5.096 -12.546  0.00  0.00    -0.245 OA
ATOM      6  C   UNL d   1       9.791   3.735 -14.582  0.00  0.00     0.179 A 
ATOM      7  C   UNL d   1      10.116   2.251 -14.451  0.00  0.00     0.039 C 
ATOM      8  C   UNL d   1      10.476   4.539 -13.510  0.00  0.00     0.265 A 
ATOM      9  O   UNL d   1      11.696   4.595 -13.463  0.00  0.00    -0.269 OA
BRANCH   6  10
ATOM     10  C   UNL d   1      10.239   4.316 -15.939  0.00  0.00     0.006 A 
ATOM     11  C   UNL d   1      11.429   3.911 -16.609  0.00  0.00     0.000 A 
ATOM     12  C   UNL d   1      11.758   4.483 -17.860  0.00  0.00     0.029 A 
ATOM     13  C   UNL d   1      10.951   5.493 -18.432  0.00  0.00     0.140 A 
ATOM     14  C   UNL d   1       9.816   5.940 -17.742  0.00  0.00     0.029 A 
ATOM     15  F   UNL d   1      11.261   6.035 -19.633  0.00  0.00    -0.204 F 
ATOM     16  C   UNL d   1       9.480   5.356 -16.505  0.00  0.00     0.000 A 
ENDBRANCH   6  10
ENDBRANCH   1   2
BRANCH   1  17
ATOM     17  C   UNL d   1       9.270   7.442 -11.595  0.00  0.00     0.208 C 
ATOM     18  O   UNL d   1       9.853   7.995 -12.757  0.00  0.00    -0.219 OA
BRANCH  17  19
ATOM     19  C   UNL d   1       9.792   8.373 -10.460  0.00  0.00     0.285 C 
BRANCH  19  20
ATOM     20  N   UNL d   1       9.693   7.861  -9.083  0.00  0.00     0.144 N 
ATOM     21  C   UNL d   1      10.875   7.094  -8.642  0.00  0.00     0.274 C 
ATOM     22  C   UNL d   1      10.653   6.532  -7.235  0.00  0.00     0.137 C 
ATOM     23  N   UNL d   1      10.327   7.598  -6.320  0.00  0.00    -0.344 N 
ATOM     24  C   UNL d   1       9.224   8.434  -6.711  0.00  0.00     0.137 C 
ATOM     25  C   UNL d   1       9.455   8.963  -8.143  0.00  0.00     0.274 C 
BRANCH  23  26
ATOM     26  C   UNL d   1      11.097   7.827  -5.148  0.00  0.00     0.056 A 
ATOM     27  C   UNL d   1      11.546   6.733  -4.414  0.00  0.00     0.017 A 
ATOM     28  C   UNL d   1      12.264   6.910  -3.211  0.00  0.00     0.002 A 
ATOM     29  C   UNL d   1      12.534   8.210  -2.759  0.00  0.00     0.000 A 
ATOM     30  C   UNL d   1      12.092   9.315  -3.495  0.00  0.00     0.002 A 
ATOM     31  C   UNL d   1      11.384   9.139  -4.710  0.00  0.00     0.017 A 
ENDBRANCH  23  26
ENDBRANCH  19  20
ENDBRANCH  17  19
ENDBRANCH   1  17
TORSDOF 6
