REMARK  6 active torsions:
REMARK  status: ('A' for Active; 'I' for Inactive)
REMARK    1  A    between atoms: S_2  and  N_4 
REMARK    2  A    between atoms: S_2  and  C_23 
REMARK    3  A    between atoms: N_4  and  C_5 
REMARK    4  A    between atoms: C_5  and  C_6 
REMARK    5  A    between atoms: C_6  and  N_7 
REMARK    6  A    between atoms: C_10  and  C_11 
ROOT
ATOM      1  N   UNL d   1       8.028   4.640 -11.829  0.00  0.00     0.144 N 
ATOM      2  C   UNL d   1       6.718   4.526 -12.472  0.00  0.00     0.276 C 
ATOM      3  C   UNL d   1       6.694   3.524 -13.613  0.00  0.00     0.005 C 
ATOM      4  C   UNL d   1       7.803   3.007 -14.181  0.00  0.00    -0.021 C 
ATOM      5  C   UNL d   1       9.159   3.438 -13.645  0.00  0.00     0.061 C 
ATOM      6  C   UNL d   1       9.085   4.736 -12.833  0.00  0.00     0.255 C 
ENDROOT
BRANCH   1   7
ATOM      7  C   UNL d   1       8.030   5.785 -10.926  0.00  0.00     0.278 C 
BRANCH   7   8
ATOM      8  C   UNL d   1       9.081   5.585  -9.826  0.00  0.00     0.174 C 
BRANCH   8   9
ATOM      9  N   UNL d   1       9.062   6.727  -8.914  0.00  0.00    -0.183 NA
BRANCH   9  10
ATOM     10  S   UNL d   1      10.336   7.894  -8.908  0.00  0.00     0.281 S 
ATOM     11  O   UNL d   1      11.481   7.343  -9.640  0.00  0.00    -0.199 OA
ATOM     12  O   UNL d   1       9.761   9.185  -9.294  0.00  0.00    -0.199 OA
BRANCH  10  13
ATOM     13  C   UNL d   1      10.777   7.960  -7.177  0.00  0.00     0.107 A 
ATOM     14  C   UNL d   1      10.752   9.180  -6.481  0.00  0.00     0.040 A 
ATOM     15  C   UNL d   1      11.088   9.211  -5.117  0.00  0.00     0.132 A 
ATOM     16  C   UNL d   1      11.461   8.025  -4.449  0.00  0.00     0.027 A 
ATOM     17  O   UNL d   1      11.047  10.392  -4.439  0.00  0.00    -0.190 OA
ATOM     18  C   UNL d   1      11.460   6.803  -5.147  0.00  0.00     0.003 A 
ATOM     19  C   UNL d   1      11.127   6.769  -6.514  0.00  0.00     0.013 A 
ENDBRANCH  10  13
ENDBRANCH   9  10
ENDBRANCH   8   9
ENDBRANCH   7   8
ENDBRANCH   1   7
BRANCH   4  20
ATOM     20  C   UNL d   1       7.732   1.979 -15.238  0.00  0.00     0.017 A 
ATOM     21  C   UNL d   1       6.709   0.984 -15.429  0.00  0.00     0.020 A 
ATOM     22  C   UNL d   1       7.043   0.275 -16.626  0.00  0.00     0.082 A 
ATOM     23  C   UNL d   1       5.535   0.582 -14.750  0.00  0.00     0.013 A 
ATOM     24  N   UNL d   1       8.234   0.819 -17.074  0.00  0.00    -0.244 NA
ATOM     25  C   UNL d   1       6.230  -0.758 -17.132  0.00  0.00     0.020 A 
ATOM     26  C   UNL d   1       8.655   1.842 -16.241  0.00  0.00     0.099 A 
ATOM     27  C   UNL d   1       5.053  -1.112 -16.444  0.00  0.00     0.013 A 
ATOM     28  C   UNL d   1       4.704  -0.433 -15.259  0.00  0.00     0.058 A 
ATOM     29 CL   UNL d   1       3.242  -0.812 -14.437  0.00  0.00    -0.082 Cl
ENDBRANCH   4  20
TORSDOF 6
