REMARK  13 active torsions:
REMARK  status: ('A' for Active; 'I' for Inactive)
REMARK    1  A    between atoms: C_2  and  C_3 
REMARK    2  A    between atoms: C_3  and  N_4 
REMARK    3  A    between atoms: N_4  and  C_5 
REMARK    4  A    between atoms: N_4  and  C_24 
REMARK    5  A    between atoms: C_5  and  C_6 
REMARK    6  A    between atoms: C_6  and  C_7 
REMARK    7  A    between atoms: C_7  and  C_8 
REMARK    8  A    between atoms: C_8  and  N_9 
REMARK       I    between atoms: N_9  and  C_10 
REMARK    9  A    between atoms: C_10  and  C_12 
REMARK   10  A    between atoms: C_15  and  C_16 
REMARK   11  A    between atoms: C_24  and  C_25 
REMARK   12  A    between atoms: C_27  and  C_28 
REMARK   13  A    between atoms: C_34  and  O_35 
ROOT
ATOM      1  C   UNL d   1       9.716   2.453 -14.188  0.00  0.00     0.250 C 
ENDROOT
BRANCH   1   2
ATOM      2  N   UNL d   1       9.499   2.139 -15.597  0.00  0.00     0.137 N 
BRANCH   2   3
ATOM      3  C   UNL d   1       9.997   3.191 -16.493  0.00  0.00     0.250 C 
BRANCH   3   4
ATOM      4  C   UNL d   1      11.516   3.401 -16.405  0.00  0.00     0.035 C 
ATOM      5  C   UNL d   1      12.274   2.248 -17.077  0.00  0.00     0.002 C 
ENDBRANCH   3   4
ENDBRANCH   2   3
BRANCH   2   6
ATOM      6  C   UNL d   1       8.080   1.851 -15.823  0.00  0.00     0.251 C 
BRANCH   6   7
ATOM      7  C   UNL d   1       7.859   1.016 -17.068  0.00  0.00     0.038 A 
ATOM      8  C   UNL d   1       6.569   1.148 -17.844  0.00  0.00     0.026 A 
ATOM      9  C   UNL d   1       7.851   1.666 -18.435  0.00  0.00     0.007 A 
BRANCH   8  10
ATOM     10  C   UNL d   1       5.878  -0.039 -18.439  0.00  0.00     0.001 A 
ATOM     11  C   UNL d   1       5.054  -0.881 -17.652  0.00  0.00     0.090 A 
ATOM     12  C   UNL d   1       4.444  -2.010 -18.261  0.00  0.00     0.025 A 
ATOM     13  C   UNL d   1       4.658  -2.292 -19.622  0.00  0.00     0.013 A 
ATOM     14  C   UNL d   1       5.467  -1.442 -20.400  0.00  0.00     0.058 A 
ATOM     15  C   UNL d   1       6.056  -0.318 -19.816  0.00  0.00     0.009 A 
ATOM     16 CL   UNL d   1       5.779  -1.794 -22.060  0.00  0.00    -0.082 Cl
BRANCH  11  17
ATOM     17  O   UNL d   1       4.891  -0.547 -16.322  0.00  0.00    -0.328 OA
ATOM     18  C   UNL d   1       4.069  -1.385 -15.521  0.00  0.00     0.181 C 
ENDBRANCH  11  17
ENDBRANCH   8  10
ENDBRANCH   6   7
ENDBRANCH   2   6
ENDBRANCH   1   2
BRANCH   1  19
ATOM     19  C   UNL d   1       9.037   3.773 -13.771  0.00  0.00     0.037 C 
BRANCH  19  20
ATOM     20  C   UNL d   1       9.531   4.311 -12.428  0.00  0.00     0.029 C 
BRANCH  20  21
ATOM     21  C   UNL d   1       8.777   5.582 -12.035  0.00  0.00     0.129 C 
BRANCH  21  22
ATOM     22  N   UNL d   1       9.194   6.026 -10.715  0.00  0.00    -0.234 NA
ATOM     23  C   UNL d   1       9.706   7.235 -10.421  0.00  0.00     0.275 C 
ATOM     24  O   UNL d   1       9.829   8.144 -11.241  0.00  0.00    -0.266 OA
BRANCH  23  25
ATOM     25  C   UNL d   1      10.179   7.409  -9.005  0.00  0.00     0.058 A 
ATOM     26  C   UNL d   1      11.236   8.302  -8.722  0.00  0.00     0.005 A 
ATOM     27  C   UNL d   1      11.652   8.512  -7.391  0.00  0.00     0.002 A 
ATOM     28  C   UNL d   1      11.027   7.837  -6.321  0.00  0.00     0.018 A 
ATOM     29  C   UNL d   1       9.975   6.943  -6.612  0.00  0.00     0.002 A 
ATOM     30  C   UNL d   1       9.547   6.737  -7.937  0.00  0.00     0.005 A 
BRANCH  28  31
ATOM     31  C   UNL d   1      11.462   8.048  -4.929  0.00  0.00     0.081 A 
ATOM     32  N   UNL d   1      11.480   9.332  -4.502  0.00  0.00    -0.244 NA
ATOM     33  C   UNL d   1      11.869   9.580  -3.236  0.00  0.00     0.099 A 
ATOM     34  C   UNL d   1      12.263   8.573  -2.335  0.00  0.00     0.021 A 
ATOM     35  C   UNL d   1      12.254   7.239  -2.777  0.00  0.00     0.003 A 
ATOM     36  C   UNL d   1      11.849   6.974  -4.097  0.00  0.00     0.019 A 
ENDBRANCH  28  31
ENDBRANCH  23  25
ENDBRANCH  21  22
ENDBRANCH  20  21
ENDBRANCH  19  20
ENDBRANCH   1  19
TORSDOF 13
