REMARK  8 active torsions:
REMARK  status: ('A' for Active; 'I' for Inactive)
REMARK    1  A    between atoms: O_2  and  C_3 
REMARK    2  A    between atoms: C_9  and  C_10 
REMARK       I    between atoms: C_10  and  N_12 
REMARK    3  A    between atoms: N_12  and  C_13 
REMARK    4  A    between atoms: C_13  and  C_14 
REMARK    5  A    between atoms: C_14  and  C_15 
REMARK    6  A    between atoms: C_15  and  C_16 
REMARK    7  A    between atoms: C_16  and  N_17 
REMARK    8  A    between atoms: N_20  and  C_21 
ROOT
ATOM      1  C   UNL d   1       8.555   5.732 -11.938  0.00  0.00     0.037 C 
ENDROOT
BRANCH   1   2
ATOM      2  C   UNL d   1       7.986   4.542 -12.737  0.00  0.00     0.029 C 
BRANCH   2   3
ATOM      3  C   UNL d   1       8.908   4.058 -13.854  0.00  0.00     0.129 C 
BRANCH   3   4
ATOM      4  N   UNL d   1       8.320   2.900 -14.506  0.00  0.00    -0.233 NA
ATOM      5  C   UNL d   1       8.960   2.098 -15.364  0.00  0.00     0.298 C 
ATOM      6  O   UNL d   1      10.155   2.217 -15.640  0.00  0.00    -0.263 OA
BRANCH   5   7
ATOM      7  C   UNL d   1       8.111   1.108 -16.060  0.00  0.00     0.157 A 
ATOM      8  C   UNL d   1       8.303   0.434 -17.245  0.00  0.00     0.032 A 
ATOM      9  C   UNL d   1       7.146  -0.393 -17.447  0.00  0.00     0.027 A 
ATOM     10  C   UNL d   1       6.685  -1.318 -18.413  0.00  0.00     0.002 A 
ATOM     11  C   UNL d   1       6.307  -0.154 -16.332  0.00  0.00     0.122 A 
ATOM     12  C   UNL d   1       5.451  -1.982 -18.239  0.00  0.00     0.002 A 
ATOM     13  C   UNL d   1       4.648  -1.732 -17.105  0.00  0.00     0.026 A 
ATOM     14  C   UNL d   1       5.073  -0.795 -16.132  0.00  0.00     0.117 A 
ATOM     15  O   UNL d   1       6.898   0.778 -15.504  0.00  0.00    -0.300 OA
BRANCH  14  16
ATOM     16  O   UNL d   1       4.375  -0.465 -14.992  0.00  0.00    -0.326 OA
ATOM     17  C   UNL d   1       3.066  -0.983 -14.841  0.00  0.00     0.181 C 
ENDBRANCH  14  16
ENDBRANCH   5   7
ENDBRANCH   3   4
ENDBRANCH   2   3
ENDBRANCH   1   2
BRANCH   1  18
ATOM     18  C   UNL d   1       9.207   5.309 -10.605  0.00  0.00     0.251 C 
BRANCH  18  19
ATOM     19  N   UNL d   1       9.078   6.362  -9.604  0.00  0.00     0.141 N 
ATOM     20  C   UNL d   1       9.841   7.578  -9.879  0.00  0.00     0.274 C 
ATOM     21  C   UNL d   1       9.572   8.665  -8.805  0.00  0.00     0.138 C 
ATOM     22  N   UNL d   1       9.769   8.102  -7.469  0.00  0.00    -0.328 N 
ATOM     23  C   UNL d   1       8.950   6.909  -7.230  0.00  0.00     0.138 C 
ATOM     24  C   UNL d   1       9.340   5.839  -8.272  0.00  0.00     0.274 C 
BRANCH  22  25
ATOM     25  C   UNL d   1      10.635   8.685  -6.524  0.00  0.00     0.163 A 
ATOM     26  C   UNL d   1      11.192   8.117  -5.320  0.00  0.00     0.055 A 
ATOM     27  C   UNL d   1      11.955   9.177  -4.747  0.00  0.00     0.106 A 
ATOM     28  C   UNL d   1      11.187   6.872  -4.600  0.00  0.00     0.005 A 
ATOM     29  N   UNL d   1      11.846  10.210  -5.655  0.00  0.00    -0.147 NA
ATOM     30  C   UNL d   1      12.659   9.046  -3.532  0.00  0.00     0.021 A 
ATOM     31  N   UNL d   1      11.055   9.929  -6.705  0.00  0.00    -0.131 NA
ATOM     32  C   UNL d   1      12.562   7.837  -2.813  0.00  0.00     0.002 A 
ATOM     33  C   UNL d   1      11.837   6.775  -3.352  0.00  0.00     0.000 A 
ENDBRANCH  22  25
ENDBRANCH  18  19
ENDBRANCH   1  18
TORSDOF 8
