REMARK  1 active torsions:
REMARK  status: ('A' for Active; 'I' for Inactive)
REMARK    1  A    between atoms: C_2  and  C_4 
ROOT
ATOM      1  C   UNL d   1      10.681   8.247  -7.129  0.00  0.00     0.277 C 
ATOM      2 CL   UNL d   1      11.129   6.547  -6.825  0.00  0.00    -0.072 Cl
ATOM      3 CL   UNL d   1      11.288   9.277  -5.804  0.00  0.00    -0.072 Cl
ATOM      4 CL   UNL d   1       8.902   8.387  -7.206  0.00  0.00    -0.072 Cl
ENDROOT
BRANCH   1   5
ATOM      5  C   UNL d   1      11.309   8.709  -8.447  0.00  0.00     0.230 C 
ATOM      6  O   UNL d   1      10.674   9.188  -9.383  0.00  0.00    -0.645 OA
ATOM      7  O   UNL d   1      12.664   8.568  -8.441  0.00  0.00    -0.645 OA
ENDBRANCH   1   5
TORSDOF 1
