REMARK  5 active torsions:
REMARK  status: ('A' for Active; 'I' for Inactive)
REMARK    1  A    between atoms: O_2  and  C_3 
REMARK    2  A    between atoms: C_8  and  N_9 
REMARK    3  A    between atoms: N_12  and  C_13 
REMARK    4  A    between atoms: C_17  and  N_18 
REMARK       I    between atoms: N_18  and  C_19 
REMARK    5  A    between atoms: C_19  and  C_21 
ROOT
ATOM      1  C   UNL d   1       8.834   4.771 -13.028  0.00  0.00     0.220 C 
ATOM      2  C   UNL d   1       7.614   4.561 -12.111  0.00  0.00     0.033 C 
ATOM      3  C   UNL d   1       7.517   5.832 -11.237  0.00  0.00     0.004 C 
ATOM      4  C   UNL d   1       8.372   5.773  -9.969  0.00  0.00     0.025 C 
ATOM      5  C   UNL d   1       9.643   6.615 -10.236  0.00  0.00     0.107 C 
ATOM      6  C   UNL d   1       9.214   7.683 -11.231  0.00  0.00     0.025 C 
ATOM      7  C   UNL d   1       8.140   6.969 -12.056  0.00  0.00     0.004 C 
ATOM      8  C   UNL d   1       8.752   6.272 -13.234  0.00  0.00     0.033 C 
ENDROOT
BRANCH   1   9
ATOM      9  N   UNL d   1       8.758   4.018 -14.287  0.00  0.00     0.139 N 
ATOM     10  C   UNL d   1       9.581   4.560 -15.384  0.00  0.00     0.274 C 
ATOM     11  C   UNL d   1       9.469   3.713 -16.671  0.00  0.00     0.137 C 
ATOM     12  N   UNL d   1       9.801   2.354 -16.357  0.00  0.00    -0.343 N 
ATOM     13  C   UNL d   1       9.093   1.746 -15.258  0.00  0.00     0.137 C 
ATOM     14  C   UNL d   1       9.244   2.662 -14.012  0.00  0.00     0.274 C 
BRANCH  12  15
ATOM     15  C   UNL d   1      10.730   1.592 -17.122  0.00  0.00     0.079 A 
ATOM     16  C   UNL d   1      11.934   2.172 -17.599  0.00  0.00     0.110 A 
ATOM     17  C   UNL d   1      12.802   1.372 -18.373  0.00  0.00     0.026 A 
ATOM     18  C   UNL d   1      12.502   0.021 -18.625  0.00  0.00     0.002 A 
ATOM     19  C   UNL d   1      11.313  -0.545 -18.138  0.00  0.00     0.002 A 
ATOM     20  C   UNL d   1      10.428   0.242 -17.393  0.00  0.00     0.019 A 
BRANCH  16  21
ATOM     21  O   UNL d   1      12.245   3.479 -17.251  0.00  0.00    -0.327 OA
ATOM     22  C   UNL d   1      13.358   4.111 -17.855  0.00  0.00     0.181 C 
ENDBRANCH  16  21
ENDBRANCH  12  15
ENDBRANCH   1   9
BRANCH   5  23
ATOM     23  N   UNL d   1      10.177   7.252  -9.046  0.00  0.00    -0.236 NA
ATOM     24  C   UNL d   1      10.521   6.555  -7.962  0.00  0.00     0.275 C 
ATOM     25  O   UNL d   1      10.570   5.360  -8.014  0.00  0.00    -0.266 OA
BRANCH  24  26
ATOM     26  C   UNL d   1      10.936   7.341  -6.760  0.00  0.00     0.058 A 
ATOM     27  C   UNL d   1      11.363   6.705  -5.564  0.00  0.00     0.005 A 
ATOM     28  C   UNL d   1      11.668   7.463  -4.417  0.00  0.00     0.000 A 
ATOM     29  C   UNL d   1      11.564   8.872  -4.450  0.00  0.00     0.000 A 
ATOM     30  C   UNL d   1      12.065   6.831  -3.214  0.00  0.00     0.000 A 
ATOM     31  C   UNL d   1      11.169   9.513  -5.643  0.00  0.00     0.000 A 
ATOM     32  C   UNL d   1      11.842   9.628  -3.287  0.00  0.00     0.000 A 
ATOM     33  C   UNL d   1      10.861   8.749  -6.776  0.00  0.00     0.005 A 
ATOM     34  C   UNL d   1      12.264   8.998  -2.111  0.00  0.00     0.000 A 
ATOM     35  C   UNL d   1      12.363   7.599  -2.074  0.00  0.00     0.000 A 
ENDBRANCH  24  26
ENDBRANCH   5  23
TORSDOF 5
