REMARK  7 active torsions:
REMARK  status: ('A' for Active; 'I' for Inactive)
REMARK       I    between atoms: C_2  and  N_3 
REMARK    1  A    between atoms: C_2  and  C_22 
REMARK    2  A    between atoms: N_3  and  C_4 
REMARK    3  A    between atoms: C_4  and  C_5 
REMARK    4  A    between atoms: C_5  and  C_6 
REMARK    5  A    between atoms: C_6  and  C_7 
REMARK    6  A    between atoms: C_7  and  N_8 
REMARK    7  A    between atoms: N_11  and  C_12 
ROOT
ATOM      1  C   UNL d   1       7.126   1.363 -14.516  0.00  0.00     0.129 C 
ENDROOT
BRANCH   1   2
ATOM      2  N   UNL d   1       8.070   1.099 -15.597  0.00  0.00    -0.234 NA
ATOM      3  C   UNL d   1       7.796   1.074 -16.912  0.00  0.00     0.275 C 
ATOM      4  O   UNL d   1       6.679   1.271 -17.390  0.00  0.00    -0.266 OA
BRANCH   3   5
ATOM      5  C   UNL d   1       8.957   0.721 -17.796  0.00  0.00     0.058 A 
ATOM      6  C   UNL d   1      10.201   1.410 -17.771  0.00  0.00     0.008 A 
ATOM      7  C   UNL d   1      11.252   0.975 -18.595  0.00  0.00     0.039 A 
ATOM      8  C   UNL d   1      10.701   2.583 -17.024  0.00  0.00     0.003 A 
ATOM      9  C   UNL d   1      11.100  -0.100 -19.488  0.00  0.00     0.003 A 
ATOM     10  C   UNL d   1      12.457   1.803 -18.379  0.00  0.00     0.196 A 
ATOM     11  C   UNL d   1       9.856  -0.755 -19.547  0.00  0.00     0.000 A 
ATOM     12  C   UNL d   1       8.795  -0.348 -18.711  0.00  0.00     0.005 A 
ATOM     13  C   UNL d   1      12.050   2.794 -17.362  0.00  0.00     0.039 A 
ATOM     14  O   UNL d   1      13.552   1.691 -18.933  0.00  0.00    -0.287 OA
ATOM     15  C   UNL d   1      12.811   3.844 -16.801  0.00  0.00     0.003 A 
ATOM     16  C   UNL d   1      12.187   4.694 -15.857  0.00  0.00     0.000 A 
ATOM     17  C   UNL d   1      10.819   4.504 -15.535  0.00  0.00     0.000 A 
ATOM     18  C   UNL d   1      10.058   3.479 -16.144  0.00  0.00     0.000 A 
ENDBRANCH   3   5
ENDBRANCH   1   2
BRANCH   1  19
ATOM     19  C   UNL d   1       6.932   2.864 -14.288  0.00  0.00     0.029 C 
BRANCH  19  20
ATOM     20  C   UNL d   1       6.022   3.251 -13.078  0.00  0.00     0.037 C 
BRANCH  20  21
ATOM     21  C   UNL d   1       6.155   4.804 -12.781  0.00  0.00     0.251 C 
BRANCH  21  22
ATOM     22  N   UNL d   1       7.509   5.227 -12.352  0.00  0.00     0.141 N 
ATOM     23  C   UNL d   1       7.444   6.623 -11.947  0.00  0.00     0.274 C 
ATOM     24  C   UNL d   1       8.798   7.102 -11.311  0.00  0.00     0.137 C 
ATOM     25  N   UNL d   1       9.300   6.256 -10.219  0.00  0.00    -0.344 N 
ATOM     26  C   UNL d   1       9.233   4.838 -10.507  0.00  0.00     0.137 C 
ATOM     27  C   UNL d   1       7.863   4.497 -11.141  0.00  0.00     0.274 C 
BRANCH  25  28
ATOM     28  C   UNL d   1       9.592   6.747  -8.921  0.00  0.00     0.068 A 
ATOM     29  C   UNL d   1      10.469   7.853  -8.690  0.00  0.00     0.084 A 
ATOM     30  C   UNL d   1      10.769   8.253  -7.380  0.00  0.00     0.070 A 
ATOM     31 CL   UNL d   1      11.246   8.692 -10.003  0.00  0.00    -0.080 Cl
ATOM     32  C   UNL d   1      10.226   7.587  -6.276  0.00  0.00     0.012 A 
ATOM     33 CL   UNL d   1      11.843   9.549  -7.015  0.00  0.00    -0.081 Cl
ATOM     34  C   UNL d   1       9.347   6.527  -6.498  0.00  0.00     0.002 A 
ATOM     35  C   UNL d   1       9.036   6.085  -7.785  0.00  0.00     0.018 A 
ENDBRANCH  25  28
ENDBRANCH  21  22
ENDBRANCH  20  21
ENDBRANCH  19  20
ENDBRANCH   1  19
TORSDOF 7
