REMARK  11 active torsions:
REMARK  status: ('A' for Active; 'I' for Inactive)
REMARK    1  A    between atoms: C_9  and  C_10 
REMARK    2  A    between atoms: C_10  and  C_12 
REMARK    3  A    between atoms: C_12  and  N_13 
REMARK    4  A    between atoms: N_13  and  C_14 
REMARK    5  A    between atoms: C_14  and  C_15 
REMARK    6  A    between atoms: C_15  and  C_16 
REMARK    7  A    between atoms: C_19  and  C_20 
REMARK    8  A    between atoms: C_20  and  N_21 
REMARK    9  A    between atoms: N_21  and  C_22 
REMARK   10  A    between atoms: C_22  and  C_23 
REMARK   11  A    between atoms: C_23  and  C_24 
ROOT
ATOM      1  C   UNL d   1       8.584   5.042 -14.316  0.00  0.00     0.065 C 
ENDROOT
BRANCH   1   2
ATOM      2  C   UNL d   1       9.942   4.559 -14.848  0.00  0.00     0.295 C 
BRANCH   2   3
ATOM      3  N   UNL d   1      10.034   3.103 -14.808  0.00  0.00     0.343 N 
BRANCH   3   4
ATOM      4  C   UNL d   1       9.678   2.463 -16.077  0.00  0.00     0.327 C 
BRANCH   4   5
ATOM      5  C   UNL d   1       9.553   0.934 -15.942  0.00  0.00     0.211 C 
ATOM      6  O   UNL d   1       9.986   0.327 -17.137  0.00  0.00    -0.216 OA
BRANCH   5   7
ATOM      7  C   UNL d   1       8.148   0.508 -15.502  0.00  0.00     0.018 A 
ATOM      8  C   UNL d   1       7.869   0.384 -14.123  0.00  0.00     0.001 A 
ATOM      9  C   UNL d   1       6.598  -0.029 -13.659  0.00  0.00     0.029 A 
ATOM     10  C   UNL d   1       5.558  -0.320 -14.568  0.00  0.00     0.149 A 
ATOM     11  C   UNL d   1       5.829  -0.190 -15.944  0.00  0.00     0.116 A 
ATOM     12  O   UNL d   1       4.335  -0.722 -14.108  0.00  0.00    -0.189 OA
ATOM     13  N   UNL d   1       4.928  -0.458 -16.997  0.00  0.00    -0.200 NA
ATOM     14  C   UNL d   1       7.080   0.242 -16.398  0.00  0.00     0.052 A 
ATOM     15  C   UNL d   1       5.400  -0.213 -18.274  0.00  0.00     0.311 A 
ATOM     16  O   UNL d   1       4.798  -0.342 -19.336  0.00  0.00    -0.258 OA
ATOM     17  S   UNL d   1       7.101   0.380 -18.146  0.00  0.00    -0.024 SA
ENDBRANCH   5   7
ENDBRANCH   4   5
ENDBRANCH   3   4
ENDBRANCH   2   3
ENDBRANCH   1   2
BRANCH   1  18
ATOM     18  C   UNL d   1       8.638   5.354 -12.841  0.00  0.00    -0.020 A 
ATOM     19  C   UNL d   1       9.266   6.534 -12.392  0.00  0.00    -0.004 A 
ATOM     20  C   UNL d   1       9.345   6.828 -11.017  0.00  0.00    -0.003 A 
ATOM     21  C   UNL d   1       8.772   5.948 -10.081  0.00  0.00     0.013 A 
ATOM     22  C   UNL d   1       8.126   4.785 -10.536  0.00  0.00    -0.003 A 
ATOM     23  C   UNL d   1       8.057   4.480 -11.906  0.00  0.00    -0.004 A 
BRANCH  21  24
ATOM     24  C   UNL d   1       8.772   6.302  -8.607  0.00  0.00     0.317 C 
BRANCH  24  25
ATOM     25  N   UNL d   1      10.104   6.219  -8.040  0.00  0.00     0.344 N 
BRANCH  25  26
ATOM     26  C   UNL d   1      10.109   6.871  -6.739  0.00  0.00     0.297 C 
BRANCH  26  27
ATOM     27  C   UNL d   1      11.532   6.854  -6.180  0.00  0.00     0.084 C 
BRANCH  27  28
ATOM     28  C   UNL d   1      11.627   7.557  -4.840  0.00  0.00     0.061 A 
ATOM     29  N   UNL d   1      11.479   8.900  -4.861  0.00  0.00    -0.248 NA
ATOM     30  C   UNL d   1      11.614   9.566  -3.697  0.00  0.00     0.099 A 
ATOM     31  C   UNL d   1      11.903   8.931  -2.473  0.00  0.00     0.021 A 
ATOM     32  C   UNL d   1      12.061   7.535  -2.463  0.00  0.00     0.003 A 
ATOM     33  C   UNL d   1      11.923   6.832  -3.668  0.00  0.00     0.015 A 
ENDBRANCH  27  28
ENDBRANCH  26  27
ENDBRANCH  25  26
ENDBRANCH  24  25
ENDBRANCH  21  24
ENDBRANCH   1  18
TORSDOF 11
