REMARK  3 active torsions:
REMARK  status: ('A' for Active; 'I' for Inactive)
REMARK    1  A    between atoms: C_10  and  C_11 
REMARK    2  A    between atoms: C_11  and  N_12 
REMARK    3  A    between atoms: C_15  and  C_16 
ROOT
ATOM      1  N   UNL d   1       7.428   4.072 -13.634  0.00  0.00     0.137 N 
ATOM      2  C   UNL d   1       8.835   3.807 -13.290  0.00  0.00     0.251 C 
ATOM      3  C   UNL d   1       9.486   5.036 -12.657  0.00  0.00     0.041 C 
ATOM      4  C   UNL d   1       8.724   5.450 -11.406  0.00  0.00     0.047 C 
ATOM      5  C   UNL d   1       7.238   5.654 -11.745  0.00  0.00     0.041 C 
ATOM      6  C   UNL d   1       6.655   4.401 -12.435  0.00  0.00     0.251 C 
ENDROOT
BRANCH   1   7
ATOM      7  C   UNL d   1       6.800   2.922 -14.316  0.00  0.00     0.251 C 
BRANCH   7   8
ATOM      8  C   UNL d   1       7.676   2.274 -15.410  0.00  0.00     0.048 C 
ATOM      9  C   UNL d   1       8.649   1.223 -14.782  0.00  0.00     0.072 C 
ATOM     10  C   UNL d   1       9.533   0.462 -15.767  0.00  0.00     0.176 C 
ATOM     11  C   UNL d   1       8.884   0.222 -17.063  0.00  0.00     0.071 A 
ATOM     12  O   UNL d   1      10.654   0.082 -15.474  0.00  0.00    -0.291 OA
ATOM     13  C   UNL d   1       9.293  -0.519 -18.178  0.00  0.00     0.091 A 
ATOM     14  C   UNL d   1       7.699   0.768 -17.396  0.00  0.00     0.107 A 
ATOM     15  C   UNL d   1      10.544  -1.338 -18.365  0.00  0.00     0.055 C 
ATOM     16  N   UNL d   1       8.373  -0.463 -19.140  0.00  0.00    -0.131 NA
ATOM     17  O   UNL d   1       7.342   0.363 -18.647  0.00  0.00    -0.216 OA
ATOM     18  C   UNL d   1       6.849   1.675 -16.587  0.00  0.00     0.056 C 
ENDBRANCH   7   8
ENDBRANCH   1   7
BRANCH   4  19
ATOM     19  C   UNL d   1       9.352   6.711 -10.829  0.00  0.00     0.087 A 
ATOM     20  C   UNL d   1       9.860   6.985  -9.548  0.00  0.00     0.041 A 
ATOM     21  C   UNL d   1      10.319   8.302  -9.526  0.00  0.00     0.129 A 
ATOM     22  C   UNL d   1       9.962   6.198  -8.379  0.00  0.00     0.006 A 
ATOM     23  O   UNL d   1      10.089   8.784 -10.793  0.00  0.00    -0.211 OA
ATOM     24  C   UNL d   1      10.882   8.898  -8.401  0.00  0.00     0.057 A 
ATOM     25  N   UNL d   1       9.496   7.784 -11.594  0.00  0.00    -0.131 NA
ATOM     26  C   UNL d   1      10.986   8.121  -7.230  0.00  0.00     0.142 A 
ATOM     27  F   UNL d   1      11.518   8.667  -6.107  0.00  0.00    -0.204 F 
ATOM     28  C   UNL d   1      10.534   6.774  -7.219  0.00  0.00     0.030 A 
ENDBRANCH   4  19
TORSDOF 3
