REMARK  1 active torsions:
REMARK  status: ('A' for Active; 'I' for Inactive)
REMARK    1  A    between atoms: C_6  and  C_7 
ROOT
ATOM      1  C   UNL d   1      10.887   8.480  -6.272  0.00  0.00     0.040 A 
ATOM      2  C   UNL d   1      10.700   9.820  -6.409  0.00  0.00     0.101 A 
ATOM      3  N   UNL d   1      11.054  10.475  -5.253  0.00  0.00    -0.244 NA
ATOM      4  C   UNL d   1      11.489   9.583  -4.324  0.00  0.00     0.084 A 
ATOM      5  C   UNL d   1      11.959   9.753  -3.016  0.00  0.00     0.020 A 
ATOM      6  C   UNL d   1      12.412   8.640  -2.296  0.00  0.00     0.015 A 
ATOM      7  C   UNL d   1      12.281   7.378  -2.904  0.00  0.00     0.085 A 
ATOM      8 CL   UNL d   1      12.678   5.992  -2.056  0.00  0.00    -0.080 Cl
ATOM      9  C   UNL d   1      11.810   7.221  -4.221  0.00  0.00     0.152 A 
ATOM     10  F   UNL d   1      11.741   6.010  -4.791  0.00  0.00    -0.203 F 
ATOM     11  C   UNL d   1      11.409   8.325  -4.966  0.00  0.00     0.049 A 
ENDROOT
BRANCH   1  12
ATOM     12  C   UNL d   1      10.554   7.481  -7.251  0.00  0.00     0.082 A 
ATOM     13  N   UNL d   1      10.992   7.543  -8.568  0.00  0.00    -0.307 N 
ATOM     14  C   UNL d   1      11.912   8.486  -9.180  0.00  0.00     0.132 C 
ATOM     15  C   UNL d   1      10.432   6.480  -9.156  0.00  0.00     0.179 A 
ATOM     16  N   UNL d   1       9.691   5.713  -8.371  0.00  0.00    -0.223 NA
ATOM     17  C   UNL d   1       9.717   6.389  -7.157  0.00  0.00     0.118 A 
ENDBRANCH   1  12
TORSDOF 1
