REMARK  6 active torsions:
REMARK  status: ('A' for Active; 'I' for Inactive)
REMARK    1  A    between atoms: C_2  and  C_3 
REMARK    2  A    between atoms: N_13  and  C_14 
REMARK    3  A    between atoms: C_14  and  C_15 
REMARK    4  A    between atoms: C_15  and  C_17 
REMARK    5  A    between atoms: C_17  and  N_18 
REMARK    6  A    between atoms: N_21  and  C_22 
ROOT
ATOM      1  C   UNL d   1       9.342   4.041 -12.719  0.00  0.00     0.148 C 
ENDROOT
BRANCH   1   2
ATOM      2  N   UNL d   1       9.720   3.669 -14.086  0.00  0.00    -0.247 N 
ATOM      3  C   UNL d   1       8.993   2.867 -14.882  0.00  0.00     0.348 A 
ATOM      4  N   UNL d   1       9.620   2.761 -16.058  0.00  0.00    -0.209 NA
ATOM      5  O   UNL d   1       7.932   2.309 -14.603  0.00  0.00    -0.245 OA
ATOM      6  C   UNL d   1      10.843   3.546 -16.127  0.00  0.00     0.179 A 
ATOM      7  C   UNL d   1      12.039   2.606 -16.378  0.00  0.00     0.039 C 
ATOM      8  C   UNL d   1      10.831   4.084 -14.698  0.00  0.00     0.265 A 
ATOM      9  O   UNL d   1      11.722   4.789 -14.209  0.00  0.00    -0.269 OA
BRANCH   6  10
ATOM     10  C   UNL d   1      10.778   4.703 -17.140  0.00  0.00     0.006 A 
ATOM     11  C   UNL d   1      11.904   5.540 -17.327  0.00  0.00     0.000 A 
ATOM     12  C   UNL d   1      11.871   6.599 -18.254  0.00  0.00     0.029 A 
ATOM     13  C   UNL d   1      10.709   6.838 -19.009  0.00  0.00     0.140 A 
ATOM     14  C   UNL d   1       9.580   6.019 -18.836  0.00  0.00     0.029 A 
ATOM     15  F   UNL d   1      10.674   7.863 -19.893  0.00  0.00    -0.204 F 
ATOM     16  C   UNL d   1       9.614   4.957 -17.911  0.00  0.00     0.000 A 
ENDBRANCH   6  10
ENDBRANCH   1   2
BRANCH   1  17
ATOM     17  C   UNL d   1       8.419   5.285 -12.677  0.00  0.00     0.208 C 
ATOM     18  O   UNL d   1       7.151   4.940 -13.203  0.00  0.00    -0.219 OA
BRANCH  17  19
ATOM     19  C   UNL d   1       8.111   5.779 -11.255  0.00  0.00     0.285 C 
BRANCH  19  20
ATOM     20  N   UNL d   1       9.283   5.936 -10.395  0.00  0.00     0.144 N 
ATOM     21  C   UNL d   1       8.923   5.674  -9.002  0.00  0.00     0.274 C 
ATOM     22  C   UNL d   1      10.127   5.780  -8.066  0.00  0.00     0.137 C 
ATOM     23  N   UNL d   1      10.768   7.085  -8.216  0.00  0.00    -0.344 N 
ATOM     24  C   UNL d   1      11.089   7.457  -9.601  0.00  0.00     0.137 C 
ATOM     25  C   UNL d   1       9.848   7.289 -10.495  0.00  0.00     0.274 C 
BRANCH  23  26
ATOM     26  C   UNL d   1      11.046   7.896  -7.095  0.00  0.00     0.056 A 
ATOM     27  C   UNL d   1      11.203   7.329  -5.802  0.00  0.00     0.017 A 
ATOM     28  C   UNL d   1      11.465   8.146  -4.683  0.00  0.00     0.002 A 
ATOM     29  C   UNL d   1      11.565   9.539  -4.827  0.00  0.00     0.000 A 
ATOM     30  C   UNL d   1      11.431  10.114  -6.102  0.00  0.00     0.002 A 
ATOM     31  C   UNL d   1      11.164   9.301  -7.225  0.00  0.00     0.017 A 
ENDBRANCH  23  26
ENDBRANCH  19  20
ENDBRANCH  17  19
ENDBRANCH   1  17
TORSDOF 6
