REMARK  7 active torsions:
REMARK  status: ('A' for Active; 'I' for Inactive)
REMARK    1  A    between atoms: C_4  and  C_5 
REMARK    2  A    between atoms: C_5  and  C_6 
REMARK    3  A    between atoms: C_6  and  C_7 
REMARK    4  A    between atoms: C_7  and  C_8 
REMARK    5  A    between atoms: C_8  and  N_9 
REMARK    6  A    between atoms: N_12  and  C_13 
REMARK    7  A    between atoms: C_13  and  C_14 
ROOT
ATOM      1  N   UNL d   1       9.943   3.458 -14.726  0.00  0.00     0.141 N 
ATOM      2  C   UNL d   1       9.479   4.826 -14.938  0.00  0.00     0.285 C 
ATOM      3  C   UNL d   1       8.562   5.291 -13.793  0.00  0.00     0.286 C 
ATOM      4  N   UNL d   1       9.253   5.241 -12.510  0.00  0.00     0.148 N 
ATOM      5  C   UNL d   1       9.723   3.872 -12.291  0.00  0.00     0.286 C 
ATOM      6  C   UNL d   1      10.624   3.384 -13.439  0.00  0.00     0.285 C 
ENDROOT
BRANCH   1   7
ATOM      7  C   UNL d   1      10.757   2.943 -15.826  0.00  0.00     0.250 C 
BRANCH   7   8
ATOM      8  C   UNL d   1       9.995   2.696 -17.142  0.00  0.00     0.036 C 
BRANCH   8   9
ATOM      9  C   UNL d   1       8.969   1.555 -17.055  0.00  0.00     0.007 C 
BRANCH   9  10
ATOM     10  C   UNL d   1       7.657   1.965 -16.357  0.00  0.00     0.026 C 
BRANCH  10  11
ATOM     11  C   UNL d   1       6.718   0.808 -16.132  0.00  0.00    -0.022 A 
ATOM     12  C   UNL d   1       5.939   0.319 -17.195  0.00  0.00    -0.004 A 
ATOM     13  C   UNL d   1       5.048  -0.748 -16.974  0.00  0.00    -0.000 A 
ATOM     14  C   UNL d   1       4.937  -1.318 -15.690  0.00  0.00    -0.000 A 
ATOM     15  C   UNL d   1       5.718  -0.826 -14.623  0.00  0.00    -0.000 A 
ATOM     16  C   UNL d   1       6.611   0.237 -14.846  0.00  0.00    -0.004 A 
ENDBRANCH  10  11
ENDBRANCH   9  10
ENDBRANCH   8   9
ENDBRANCH   7   8
ENDBRANCH   1   7
BRANCH   4  17
ATOM     17  C   UNL d   1       8.408   5.722 -11.409  0.00  0.00     0.301 C 
BRANCH  17  18
ATOM     18  C   UNL d   1       9.204   6.346 -10.312  0.00  0.00     0.111 A 
ATOM     19  O   UNL d   1       8.900   5.983  -9.026  0.00  0.00    -0.309 OA
ATOM     20  C   UNL d   1       9.681   6.768  -8.205  0.00  0.00     0.100 A 
ATOM     21  C   UNL d   1      10.526   7.586  -8.993  0.00  0.00     0.025 A 
ATOM     22  C   UNL d   1       9.688   6.790  -6.800  0.00  0.00     0.025 A 
ATOM     23  C   UNL d   1      10.194   7.301 -10.354  0.00  0.00     0.024 A 
ATOM     24  C   UNL d   1      11.431   8.435  -8.311  0.00  0.00     0.002 A 
ATOM     25  C   UNL d   1      11.471   8.452  -6.899  0.00  0.00     0.000 A 
ATOM     26  C   UNL d   1      10.609   7.632  -6.147  0.00  0.00     0.002 A 
ENDBRANCH  17  18
ENDBRANCH   4  17
TORSDOF 7
