REMARK  6 active torsions:
REMARK  status: ('A' for Active; 'I' for Inactive)
REMARK       I    between atoms: C_2  and  N_3 
REMARK    1  A    between atoms: C_2  and  C_27 
REMARK    2  A    between atoms: N_3  and  C_4 
REMARK    3  A    between atoms: C_7  and  C_8 
REMARK    4  A    between atoms: C_8  and  C_9 
REMARK    5  A    between atoms: C_9  and  N_10 
REMARK    6  A    between atoms: N_13  and  C_14 
ROOT
ATOM      1  N   UNL d   1       9.015   6.021  -9.310  0.00  0.00     0.141 N 
ATOM      2  C   UNL d   1       9.881   7.163  -9.635  0.00  0.00     0.274 C 
ATOM      3  C   UNL d   1       9.729   8.277  -8.558  0.00  0.00     0.138 C 
ATOM      4  N   UNL d   1       9.950   7.709  -7.222  0.00  0.00    -0.330 N 
ATOM      5  C   UNL d   1       9.098   6.566  -6.954  0.00  0.00     0.138 C 
ATOM      6  C   UNL d   1       9.384   5.502  -8.012  0.00  0.00     0.274 C 
ENDROOT
BRANCH   1   7
ATOM      7  C   UNL d   1       9.116   4.960 -10.295  0.00  0.00     0.250 C 
BRANCH   7   8
ATOM      8  C   UNL d   1       8.221   5.294 -11.504  0.00  0.00     0.035 C 
BRANCH   8   9
ATOM      9  C   UNL d   1       7.959   4.065 -12.378  0.00  0.00     0.002 C 
ATOM     10  C   UNL d   1       6.988   4.358 -13.503  0.00  0.00     0.002 C 
ATOM     11  C   UNL d   1       6.760   3.122 -14.389  0.00  0.00     0.024 C 
ATOM     12  C   UNL d   1       8.082   2.594 -14.989  0.00  0.00     0.106 C 
ATOM     13  C   UNL d   1       9.066   2.250 -13.870  0.00  0.00     0.024 C 
ATOM     14  C   UNL d   1       9.280   3.458 -12.932  0.00  0.00     0.002 C 
BRANCH  12  15
ATOM     15  N   UNL d   1       7.821   1.413 -15.807  0.00  0.00    -0.240 NA
ATOM     16  C   UNL d   1       7.790   1.386 -17.153  0.00  0.00     0.251 C 
ATOM     17  O   UNL d   1       8.025   2.379 -17.855  0.00  0.00    -0.271 OA
BRANCH  16  18
ATOM     18  C   UNL d   1       7.427   0.065 -17.727  0.00  0.00     0.081 A 
ATOM     19  C   UNL d   1       6.586   0.078 -18.995  0.00  0.00     0.010 A 
ATOM     20  C   UNL d   1       8.047  -0.305 -19.065  0.00  0.00     0.010 A 
ENDBRANCH  16  18
ENDBRANCH  12  15
ENDBRANCH   8   9
ENDBRANCH   7   8
ENDBRANCH   1   7
BRANCH   4  21
ATOM     21  C   UNL d   1      10.886   8.255  -6.295  0.00  0.00     0.142 A 
ATOM     22  C   UNL d   1      11.360   7.639  -5.092  0.00  0.00     0.059 A 
ATOM     23  C   UNL d   1      12.252   8.371  -4.278  0.00  0.00     0.104 A 
ATOM     24  C   UNL d   1      11.227   6.420  -4.368  0.00  0.00     0.032 A 
ATOM     25  C   UNL d   1      12.730   9.591  -4.638  0.00  0.00     0.045 A 
ATOM     26  O   UNL d   1      12.617   7.661  -3.139  0.00  0.00    -0.305 OA
ATOM     27  C   UNL d   1      12.258  10.110  -5.859  0.00  0.00     0.103 A 
ATOM     28  N   UNL d   1      11.348   9.494  -6.623  0.00  0.00    -0.227 NA
ATOM     29  C   UNL d   1      11.948   6.500  -3.202  0.00  0.00     0.123 A 
ENDBRANCH   4  21
TORSDOF 6
