REMARK  7 active torsions:
REMARK  status: ('A' for Active; 'I' for Inactive)
REMARK    1  A    between atoms: O_2  and  C_3 
REMARK    2  A    between atoms: C_3  and  C_5 
REMARK       I    between atoms: C_5  and  N_7 
REMARK    3  A    between atoms: N_7  and  C_8 
REMARK    4  A    between atoms: C_11  and  C_12 
REMARK    5  A    between atoms: C_12  and  C_13 
REMARK    6  A    between atoms: C_13  and  N_14 
REMARK    7  A    between atoms: N_17  and  C_18 
ROOT
ATOM      1  N   UNL d   1      10.920   8.220 -10.206  0.00  0.00     0.141 N 
ATOM      2  C   UNL d   1      10.154   9.269  -9.536  0.00  0.00     0.274 C 
ATOM      3  C   UNL d   1       9.666   8.817  -8.136  0.00  0.00     0.138 C 
ATOM      4  N   UNL d   1      10.783   8.249  -7.393  0.00  0.00    -0.330 N 
ATOM      5  C   UNL d   1      11.738   7.382  -8.039  0.00  0.00     0.138 C 
ATOM      6  C   UNL d   1      12.126   7.927  -9.429  0.00  0.00     0.274 C 
ENDROOT
BRANCH   1   7
ATOM      7  C   UNL d   1      10.168   7.012 -10.500  0.00  0.00     0.250 C 
BRANCH   7   8
ATOM      8  C   UNL d   1       9.206   7.242 -11.657  0.00  0.00     0.035 C 
BRANCH   8   9
ATOM      9  C   UNL d   1       8.223   6.078 -11.767  0.00  0.00     0.002 C 
ATOM     10  C   UNL d   1       7.037   6.483 -12.642  0.00  0.00     0.002 C 
ATOM     11  C   UNL d   1       6.049   5.327 -12.880  0.00  0.00     0.024 C 
ATOM     12  C   UNL d   1       6.791   4.140 -13.489  0.00  0.00     0.106 C 
ATOM     13  C   UNL d   1       7.943   3.774 -12.585  0.00  0.00     0.024 C 
ATOM     14  C   UNL d   1       8.948   4.862 -12.346  0.00  0.00     0.002 C 
BRANCH  12  15
ATOM     15  N   UNL d   1       5.883   3.004 -13.613  0.00  0.00    -0.238 NA
ATOM     16  C   UNL d   1       6.172   1.850 -14.231  0.00  0.00     0.279 C 
ATOM     17  O   UNL d   1       7.156   1.698 -14.956  0.00  0.00    -0.268 OA
BRANCH  16  18
ATOM     18  C   UNL d   1       5.193   0.694 -13.975  0.00  0.00     0.195 C 
ATOM     19  C   UNL d   1       4.843  -0.173 -15.234  0.00  0.00     0.042 C 
BRANCH  18  20
ATOM     20  O   UNL d   1       5.677  -0.020 -12.840  0.00  0.00    -0.345 OA
ATOM     21  C   UNL d   1       6.782  -0.895 -13.044  0.00  0.00     0.175 C 
ENDBRANCH  18  20
ENDBRANCH  16  18
ENDBRANCH  12  15
ENDBRANCH   8   9
ENDBRANCH   7   8
ENDBRANCH   1   7
BRANCH   4  22
ATOM     22  C   UNL d   1      11.036   8.689  -6.069  0.00  0.00     0.138 A 
ATOM     23  C   UNL d   1      11.515   7.857  -5.055  0.00  0.00     0.036 A 
ATOM     24  C   UNL d   1      11.728   8.381  -3.798  0.00  0.00     0.095 A 
ATOM     25  C   UNL d   1      11.658   6.382  -5.007  0.00  0.00     0.064 C 
ATOM     26  C   UNL d   1      11.483   9.743  -3.558  0.00  0.00     0.045 A 
ATOM     27  O   UNL d   1      12.070   7.468  -2.858  0.00  0.00    -0.331 OA
ATOM     28  C   UNL d   1      11.014  10.497  -4.660  0.00  0.00     0.103 A 
ATOM     29  N   UNL d   1      10.774   9.975  -5.868  0.00  0.00    -0.228 NA
ATOM     30  C   UNL d   1      11.882   6.197  -3.484  0.00  0.00     0.154 C 
ENDBRANCH   4  22
TORSDOF 7
