REMARK  4 active torsions:
REMARK  status: ('A' for Active; 'I' for Inactive)
REMARK    1  A    between atoms: C_2  and  C_3 
REMARK    2  A    between atoms: C_3  and  N_4 
REMARK    3  A    between atoms: N_4  and  C_5 
REMARK    4  A    between atoms: C_11  and  O_12 
ROOT
ATOM      1  C   UNL d   1      11.307   8.733  -5.478  0.00  0.00     0.261 C 
ATOM      2  C   UNL d   1      11.745   9.700  -6.574  0.00  0.00     0.041 C 
ATOM      3  C   UNL d   1      12.088   8.897  -7.832  0.00  0.00     0.028 C 
ATOM      4  C   UNL d   1      11.053   7.854  -8.196  0.00  0.00    -0.026 A 
ATOM      5  C   UNL d   1      11.059   7.360  -9.511  0.00  0.00    -0.003 A 
ATOM      6  C   UNL d   1      10.129   6.393  -9.908  0.00  0.00     0.024 A 
ATOM      7  C   UNL d   1       9.176   5.881  -8.985  0.00  0.00     0.094 A 
ATOM      8  C   UNL d   1       9.169   6.388  -7.673  0.00  0.00     0.020 A 
ATOM      9  C   UNL d   1      10.101   7.378  -7.274  0.00  0.00    -0.022 A 
ATOM     10  C   UNL d   1      10.039   7.952  -5.875  0.00  0.00     0.062 C 
ENDROOT
BRANCH   1  11
ATOM     11  N   UNL d   1      11.068   9.457  -4.227  0.00  0.00     0.337 N 
BRANCH  11  12
ATOM     12  C   UNL d   1      12.277   9.559  -3.411  0.00  0.00     0.290 C 
BRANCH  12  13
ATOM     13  C   UNL d   1      12.385   8.392  -2.411  0.00  0.00     0.038 C 
ATOM     14  C   UNL d   1      12.753   7.047  -3.040  0.00  0.00     0.002 C 
ENDBRANCH  12  13
ENDBRANCH  11  12
ENDBRANCH   1  11
BRANCH   7  15
ATOM     15  O   UNL d   1       8.285   4.892  -9.314  0.00  0.00    -0.328 OA
ATOM     16  C   UNL d   1       7.928   4.757 -10.684  0.00  0.00     0.181 C 
ENDBRANCH   7  15
TORSDOF 4
