REMARK  7 active torsions:
REMARK  status: ('A' for Active; 'I' for Inactive)
REMARK    1  A    between atoms: S_2  and  C_4 
REMARK    2  A    between atoms: S_2  and  C_23 
REMARK    3  A    between atoms: C_4  and  C_5 
REMARK    4  A    between atoms: N_8  and  C_9 
REMARK    5  A    between atoms: C_9  and  C_10 
REMARK    6  A    between atoms: C_10  and  C_11 
REMARK    7  A    between atoms: C_11  and  C_12 
ROOT
ATOM      1  C   UNL d   1       8.522   3.787 -13.853  0.00  0.00     0.052 C 
ATOM      2  C   UNL d   1       7.072   3.269 -13.924  0.00  0.00     0.038 C 
ATOM      3  C   UNL d   1       7.189   1.814 -14.383  0.00  0.00     0.250 C 
ATOM      4  N   UNL d   1       8.480   1.776 -15.066  0.00  0.00     0.137 N 
ATOM      5  C   UNL d   1       9.364   2.570 -14.217  0.00  0.00     0.251 C 
ENDROOT
BRANCH   1   6
ATOM      6  C   UNL d   1       8.954   4.370 -12.494  0.00  0.00     0.129 C 
BRANCH   6   7
ATOM      7  S   UNL d   1       8.013   5.866 -12.066  0.00  0.00     0.190 S 
ATOM      8  O   UNL d   1       7.976   6.740 -13.235  0.00  0.00    -0.222 OA
ATOM      9  O   UNL d   1       6.755   5.428 -11.459  0.00  0.00    -0.222 OA
BRANCH   7  10
ATOM     10  C   UNL d   1       9.059   6.631 -10.834  0.00  0.00     0.084 A 
ATOM     11  C   UNL d   1       9.060   6.153  -9.517  0.00  0.00     0.011 A 
ATOM     12  C   UNL d   1       9.841   6.816  -8.547  0.00  0.00     0.001 A 
ATOM     13  C   UNL d   1      10.671   7.899  -8.911  0.00  0.00     0.000 A 
ATOM     14  C   UNL d   1       9.771   6.411  -7.207  0.00  0.00     0.000 A 
ATOM     15  C   UNL d   1      10.677   8.359 -10.244  0.00  0.00     0.001 A 
ATOM     16  C   UNL d   1      11.488   8.513  -7.941  0.00  0.00     0.000 A 
ATOM     17  C   UNL d   1       9.855   7.721 -11.200  0.00  0.00     0.011 A 
ATOM     18  C   UNL d   1      11.443   8.080  -6.604  0.00  0.00     0.000 A 
ATOM     19  C   UNL d   1      10.583   7.031  -6.234  0.00  0.00     0.000 A 
ENDBRANCH   7  10
ENDBRANCH   6   7
ENDBRANCH   1   6
BRANCH   4  20
ATOM     20  C   UNL d   1       8.957   0.405 -15.189  0.00  0.00     0.251 C 
BRANCH  20  21
ATOM     21  C   UNL d   1      10.266   0.304 -15.985  0.00  0.00     0.042 C 
BRANCH  21  22
ATOM     22  C   UNL d   1      10.090   0.744 -17.451  0.00  0.00     0.050 C 
BRANCH  22  23
ATOM     23  C   UNL d   1      11.295   0.428 -18.285  0.00  0.00     0.088 A 
ATOM     24  C   UNL d   1      12.351   1.245 -18.730  0.00  0.00     0.041 A 
ATOM     25  C   UNL d   1      13.230   0.480 -19.498  0.00  0.00     0.129 A 
ATOM     26  C   UNL d   1      12.622   2.615 -18.519  0.00  0.00     0.006 A 
ATOM     27  O   UNL d   1      12.693  -0.798 -19.496  0.00  0.00    -0.211 OA
ATOM     28  C   UNL d   1      14.385   1.009 -20.092  0.00  0.00     0.057 A 
ATOM     29  N   UNL d   1      11.491  -0.807 -18.733  0.00  0.00    -0.131 NA
ATOM     30  C   UNL d   1      14.658   2.378 -19.886  0.00  0.00     0.142 A 
ATOM     31  F   UNL d   1      15.762   2.929 -20.439  0.00  0.00    -0.204 F 
ATOM     32  C   UNL d   1      13.783   3.173 -19.105  0.00  0.00     0.030 A 
ENDBRANCH  22  23
ENDBRANCH  21  22
ENDBRANCH  20  21
ENDBRANCH   4  20
TORSDOF 7
