REMARK  7 active torsions:
REMARK  status: ('A' for Active; 'I' for Inactive)
REMARK    1  A    between atoms: C_2  and  C_3 
REMARK    2  A    between atoms: N_14  and  C_15 
REMARK    3  A    between atoms: C_15  and  C_16 
REMARK    4  A    between atoms: C_16  and  C_17 
REMARK    5  A    between atoms: C_17  and  S_18 
REMARK    6  A    between atoms: S_18  and  C_19 
REMARK    7  A    between atoms: C_22  and  C_23 
ROOT
ATOM      1  C   UNL d   1       7.731   3.874 -22.606  0.00  0.00     0.067 C 
ENDROOT
BRANCH   1   2
ATOM      2  C   UNL d   1       8.271   2.462 -22.953  0.00  0.00     0.047 C 
BRANCH   2   3
ATOM      3  C   UNL d   1       7.195   1.377 -22.979  0.00  0.00     0.251 C 
BRANCH   3   4
ATOM      4  N   UNL d   1       6.899   0.955 -21.600  0.00  0.00     0.138 N 
ATOM      5  C   UNL d   1       5.452   0.852 -21.443  0.00  0.00     0.255 C 
ATOM      6  C   UNL d   1       4.984   0.670 -19.990  0.00  0.00     0.061 C 
ATOM      7  C   UNL d   1       5.057  -0.763 -19.500  0.00  0.00    -0.022 A 
ATOM      8  C   UNL d   1       6.301  -1.446 -19.430  0.00  0.00    -0.004 A 
ATOM      9  C   UNL d   1       3.862  -1.417 -19.116  0.00  0.00    -0.002 A 
ATOM     10  C   UNL d   1       6.338  -2.790 -18.984  0.00  0.00     0.102 A 
ATOM     11  C   UNL d   1       7.587  -0.747 -19.843  0.00  0.00     0.063 C 
ATOM     12  N   UNL d   1       7.370  -3.703 -18.825  0.00  0.00    -0.224 NA
ATOM     13  C   UNL d   1       5.120  -3.410 -18.621  0.00  0.00     0.119 A 
ATOM     14  C   UNL d   1       6.742  -4.802 -18.377  0.00  0.00     0.159 A 
ATOM     15  O   UNL d   1       5.384  -4.711 -18.253  0.00  0.00    -0.292 OA
ATOM     16  C   UNL d   1       3.882  -2.749 -18.670  0.00  0.00     0.026 A 
ATOM     17  C   UNL d   1       7.603  -0.303 -21.319  0.00  0.00     0.255 C 
BRANCH  14  18
ATOM     18  C   UNL d   1       7.380  -6.110 -18.047  0.00  0.00     0.072 C 
ATOM     19  C   UNL d   1       6.971  -6.657 -16.670  0.00  0.00     0.009 C 
ENDBRANCH  14  18
ENDBRANCH   3   4
ENDBRANCH   2   3
ENDBRANCH   1   2
BRANCH   1  20
ATOM     20  S   UNL d   1       8.992   5.187 -22.659  0.00  0.00    -0.075 SA
BRANCH  20  21
ATOM     21  C   UNL d   1       9.910   4.829 -21.198  0.00  0.00     0.193 A 
ATOM     22  N   UNL d   1      10.123   5.742 -20.227  0.00  0.00    -0.289 N 
ATOM     23  C   UNL d   1      10.831   5.025 -19.337  0.00  0.00     0.167 A 
ATOM     24  C   UNL d   1       9.704   7.133 -20.180  0.00  0.00     0.134 C 
ATOM     25  N   UNL d   1      11.073   3.767 -19.706  0.00  0.00    -0.128 NA
ATOM     26  N   UNL d   1      10.491   3.658 -20.948  0.00  0.00    -0.122 NA
BRANCH  23  27
ATOM     27  C   UNL d   1      11.360   5.530 -18.096  0.00  0.00     0.037 A 
ATOM     28  C   UNL d   1      10.905   5.070 -16.835  0.00  0.00     0.021 A 
ATOM     29  C   UNL d   1      11.492   5.574 -15.641  0.00  0.00     0.081 A 
ATOM     30  C   UNL d   1       9.868   4.111 -16.720  0.00  0.00     0.003 A 
ATOM     31  C   UNL d   1      12.522   6.535 -15.754  0.00  0.00     0.019 A 
ATOM     32  N   UNL d   1      11.082   5.173 -14.413  0.00  0.00    -0.250 NA
ATOM     33  C   UNL d   1      12.979   6.987 -17.006  0.00  0.00     0.002 A 
ATOM     34  C   UNL d   1      12.398   6.478 -18.177  0.00  0.00     0.003 A 
ATOM     35  C   UNL d   1      10.085   4.268 -14.318  0.00  0.00     0.059 A 
ATOM     36  C   UNL d   1       9.659   3.879 -12.924  0.00  0.00     0.052 C 
ATOM     37  C   UNL d   1       9.458   3.699 -15.440  0.00  0.00     0.015 A 
ENDBRANCH  23  27
ENDBRANCH  20  21
ENDBRANCH   1  20
TORSDOF 7
