REMARK  2 active torsions:
REMARK  status: ('A' for Active; 'I' for Inactive)
REMARK    1  A    between atoms: C_2  and  N_3 
REMARK    2  A    between atoms: C_7  and  C_8 
ROOT
ATOM      1  C   UNL d   1      10.767   8.436  -6.165  0.00  0.00     0.040 A 
ATOM      2  C   UNL d   1      10.685   9.772  -6.364  0.00  0.00     0.101 A 
ATOM      3  N   UNL d   1      11.094  10.449  -5.251  0.00  0.00    -0.244 NA
ATOM      4  C   UNL d   1      11.488   9.568  -4.281  0.00  0.00     0.084 A 
ATOM      5  C   UNL d   1      11.993   9.744  -2.989  0.00  0.00     0.022 A 
ATOM      6  C   UNL d   1      12.357   8.633  -2.216  0.00  0.00     0.034 A 
ATOM      7  C   UNL d   1      12.161   7.351  -2.751  0.00  0.00     0.168 A 
ATOM      8  F   UNL d   1      12.494   6.266  -2.030  0.00  0.00    -0.202 F 
ATOM      9  C   UNL d   1      11.640   7.193  -4.053  0.00  0.00     0.169 A 
ATOM     10  F   UNL d   1      11.437   5.990  -4.583  0.00  0.00    -0.202 F 
ATOM     11  C   UNL d   1      11.306   8.289  -4.851  0.00  0.00     0.050 A 
ENDROOT
BRANCH   1  12
ATOM     12  C   UNL d   1      10.343   7.428  -7.111  0.00  0.00     0.082 A 
ATOM     13  N   UNL d   1      10.821   7.378  -8.416  0.00  0.00    -0.309 N 
ATOM     14  C   UNL d   1      10.220   6.305  -8.941  0.00  0.00     0.179 A 
ATOM     15  N   UNL d   1       9.387   5.663  -8.133  0.00  0.00    -0.223 NA
ATOM     16  C   UNL d   1       9.426   6.421  -6.969  0.00  0.00     0.118 A 
BRANCH  13  17
ATOM     17  C   UNL d   1      11.802   8.225  -9.068  0.00  0.00     0.108 C 
ATOM     18  C   UNL d   1      11.114   9.192 -10.038  0.00  0.00     0.027 C 
ENDBRANCH  13  17
ENDBRANCH   1  12
TORSDOF 2
