REMARK  5 active torsions:
REMARK  status: ('A' for Active; 'I' for Inactive)
REMARK    1  A    between atoms: N_11  and  O_12 
REMARK    2  A    between atoms: O_12  and  C_13 
REMARK    3  A    between atoms: C_13  and  C_14 
REMARK    4  A    between atoms: C_14  and  N_15 
REMARK    5  A    between atoms: C_18  and  N_19 
ROOT
ATOM      1  N   UNL d   1       9.245   6.378  -9.401  0.00  0.00     0.140 N 
ATOM      2  C   UNL d   1      10.696   6.307  -9.284  0.00  0.00     0.252 C 
ATOM      3  C   UNL d   1      11.210   7.295  -8.269  0.00  0.00     0.058 C 
ATOM      4  C   UNL d   1      10.606   7.021  -6.881  0.00  0.00     0.094 C 
ATOM      5  C   UNL d   1       9.069   6.954  -6.999  0.00  0.00     0.058 C 
ATOM      6  C   UNL d   1       8.642   5.989  -8.123  0.00  0.00     0.252 C 
ENDROOT
BRANCH   1   7
ATOM      7  C   UNL d   1       8.698   5.529 -10.463  0.00  0.00     0.285 C 
BRANCH   7   8
ATOM      8  C   UNL d   1       9.533   5.586 -11.756  0.00  0.00     0.210 C 
BRANCH   8   9
ATOM      9  O   UNL d   1       8.782   5.639 -12.960  0.00  0.00    -0.249 OA
BRANCH   9  10
ATOM     10  N   UNL d   1       8.988   4.503 -13.745  0.00  0.00    -0.186 N 
ATOM     11  C   UNL d   1      10.230   4.298 -14.274  0.00  0.00     0.261 C 
ATOM     12  O   UNL d   1      11.109   5.147 -14.334  0.00  0.00    -0.270 OA
ATOM     13  C   UNL d   1      10.533   2.868 -14.694  0.00  0.00     0.095 C 
ATOM     14  C   UNL d   1       9.304   2.155 -15.275  0.00  0.00     0.038 C 
ATOM     15  C   UNL d   1       8.041   2.384 -14.441  0.00  0.00    -0.004 A 
ATOM     16  C   UNL d   1       7.921   3.588 -13.726  0.00  0.00     0.086 A 
ATOM     17  C   UNL d   1       7.010   1.437 -14.414  0.00  0.00    -0.003 A 
ATOM     18  C   UNL d   1       6.729   3.863 -12.992  0.00  0.00     0.019 A 
ATOM     19  C   UNL d   1       5.705   2.907 -12.950  0.00  0.00     0.002 A 
ATOM     20  C   UNL d   1       5.849   1.692 -13.645  0.00  0.00    -0.000 A 
ENDBRANCH   9  10
ENDBRANCH   8   9
ENDBRANCH   7   8
ENDBRANCH   1   7
BRANCH   4  21
ATOM     21  N   UNL d   1      11.016   8.039  -5.908  0.00  0.00    -0.281 N 
ATOM     22  C   UNL d   1      11.484   7.767  -4.619  0.00  0.00     0.082 A 
ATOM     23  C   UNL d   1      11.756   8.980  -4.030  0.00  0.00     0.102 A 
ATOM     24  C   UNL d   1      11.675   6.566  -3.951  0.00  0.00     0.019 A 
ATOM     25  N   UNL d   1      11.448   9.965  -4.948  0.00  0.00    -0.191 NA
ATOM     26  C   UNL d   1      12.226   9.093  -2.731  0.00  0.00     0.021 A 
ATOM     27  C   UNL d   1      11.014   9.375  -6.056  0.00  0.00     0.350 A 
ATOM     28  O   UNL d   1      10.664   9.985  -7.059  0.00  0.00    -0.244 OA
ATOM     29  C   UNL d   1      12.432   7.893  -2.025  0.00  0.00     0.002 A 
ATOM     30  C   UNL d   1      12.159   6.638  -2.624  0.00  0.00     0.002 A 
ENDBRANCH   4  21
TORSDOF 5
