REMARK  7 active torsions:
REMARK  status: ('A' for Active; 'I' for Inactive)
REMARK    1  A    between atoms: C_2  and  C_3 
REMARK       I    between atoms: C_2  and  N_12 
REMARK    2  A    between atoms: C_4  and  C_5 
REMARK    3  A    between atoms: N_12  and  C_13 
REMARK    4  A    between atoms: C_16  and  C_17 
REMARK    5  A    between atoms: C_17  and  C_18 
REMARK    6  A    between atoms: C_18  and  N_19 
REMARK    7  A    between atoms: C_24  and  C_25 
ROOT
ATOM      1  C   UNL d   1       9.045   3.180 -15.236  0.00  0.00     0.107 C 
ATOM      2  C   UNL d   1       7.875   3.090 -14.252  0.00  0.00     0.024 C 
ATOM      3  C   UNL d   1       7.952   4.270 -13.274  0.00  0.00     0.002 C 
ATOM      4  C   UNL d   1       9.307   4.318 -12.544  0.00  0.00     0.002 C 
ATOM      5  C   UNL d   1      10.481   4.351 -13.544  0.00  0.00     0.002 C 
ATOM      6  C   UNL d   1      10.411   3.180 -14.528  0.00  0.00     0.024 C 
ENDROOT
BRANCH   4   7
ATOM      7  C   UNL d   1       9.363   5.516 -11.577  0.00  0.00     0.035 C 
BRANCH   7   8
ATOM      8  C   UNL d   1       9.366   5.100 -10.101  0.00  0.00     0.251 C 
BRANCH   8   9
ATOM      9  N   UNL d   1      10.059   6.093  -9.291  0.00  0.00     0.146 N 
ATOM     10  C   UNL d   1      10.349   5.592  -7.951  0.00  0.00     0.277 C 
ATOM     11  C   UNL d   1      10.565   6.846  -7.158  0.00  0.00     0.009 A 
ATOM     12  C   UNL d   1       9.960   7.886  -7.827  0.00  0.00     0.009 A 
ATOM     13  C   UNL d   1      11.223   7.035  -5.934  0.00  0.00     0.001 A 
ATOM     14  C   UNL d   1       9.322   7.340  -9.072  0.00  0.00     0.277 C 
ATOM     15  C   UNL d   1       9.962   9.184  -7.313  0.00  0.00    -0.003 A 
ATOM     16  C   UNL d   1      10.637   9.413  -6.091  0.00  0.00     0.004 A 
ATOM     17  C   UNL d   1      11.257   8.341  -5.396  0.00  0.00     0.071 A 
BRANCH  17  18
ATOM     18  C   UNL d   1      11.966   8.615  -4.080  0.00  0.00     0.419 C 
ATOM     19  F   UNL d   1      11.184   9.323  -3.265  0.00  0.00    -0.166 F 
ATOM     20  F   UNL d   1      12.317   7.485  -3.458  0.00  0.00    -0.166 F 
ATOM     21  F   UNL d   1      13.054   9.330  -4.330  0.00  0.00    -0.166 F 
ENDBRANCH  17  18
ENDBRANCH   8   9
ENDBRANCH   7   8
ENDBRANCH   4   7
BRANCH   1  22
ATOM     22  N   UNL d   1       8.996   2.078 -16.202  0.00  0.00    -0.236 NA
ATOM     23  C   UNL d   1       9.103   2.151 -17.535  0.00  0.00     0.275 C 
ATOM     24  O   UNL d   1       8.991   1.135 -18.224  0.00  0.00    -0.266 OA
BRANCH  23  25
ATOM     25  C   UNL d   1       9.332   3.490 -18.057  0.00  0.00     0.062 C 
ATOM     26  C   UNL d   1       9.144   3.792 -19.351  0.00  0.00     0.005 C 
BRANCH  26  27
ATOM     27  C   UNL d   1       9.319   5.149 -19.901  0.00  0.00     0.000 A 
ATOM     28  C   UNL d   1       8.789   5.407 -21.178  0.00  0.00     0.002 A 
ATOM     29  C   UNL d   1       8.896   6.686 -21.761  0.00  0.00     0.030 A 
ATOM     30  C   UNL d   1       9.530   7.727 -21.057  0.00  0.00     0.140 A 
ATOM     31  C   UNL d   1      10.046   7.496 -19.773  0.00  0.00     0.030 A 
ATOM     32  F   UNL d   1       9.639   8.952 -21.623  0.00  0.00    -0.204 F 
ATOM     33  C   UNL d   1       9.931   6.218 -19.187  0.00  0.00     0.002 A 
ENDBRANCH  26  27
ENDBRANCH  23  25
ENDBRANCH   1  22
TORSDOF 7
