REMARK  1 active torsions:
REMARK  status: ('A' for Active; 'I' for Inactive)
REMARK    1  A    between atoms: N_2  and  C_3 
ROOT
ATOM      1  C   UNL d   1      11.810   8.556 -10.058  0.00  0.00     0.125 C 
ATOM      2  C   UNL d   1      11.841   9.238  -8.710  0.00  0.00     0.054 C 
ATOM      3  C   UNL d   1      11.385   8.460  -7.532  0.00  0.00    -0.002 A 
ATOM      4  C   UNL d   1      11.743   8.596  -6.178  0.00  0.00     0.008 A 
ATOM      5  C   UNL d   1      11.182   7.734  -5.219  0.00  0.00     0.070 A 
ATOM      6  C   UNL d   1      11.617   7.837  -3.843  0.00  0.00     0.101 C 
ATOM      7  N   UNL d   1      11.958   7.931  -2.743  0.00  0.00    -0.191 NA
ATOM      8  C   UNL d   1      10.206   6.792  -5.616  0.00  0.00     0.031 A 
ATOM      9  C   UNL d   1       9.848   6.667  -6.971  0.00  0.00     0.102 A 
ATOM     10  N   UNL d   1       8.991   5.852  -7.728  0.00  0.00    -0.191 NA
ATOM     11  C   UNL d   1       9.105   6.151  -9.021  0.00  0.00     0.350 A 
ATOM     12  O   UNL d   1       8.514   5.549  -9.939  0.00  0.00    -0.244 OA
ATOM     13  N   UNL d   1       9.975   7.165  -9.131  0.00  0.00    -0.277 N 
ATOM     14  C   UNL d   1      10.460   7.494  -7.854  0.00  0.00     0.078 A 
ATOM     15  C   UNL d   1      10.451   7.866 -10.317  0.00  0.00     0.135 C 
ENDROOT
BRANCH   1  16
ATOM     16  N   UNL d   1      12.866   7.592  -9.974  0.00  0.00    -0.293 NA
ATOM     17  C   UNL d   1      14.238   8.006 -10.107  0.00  0.00     0.146 C 
ENDBRANCH   1  16
TORSDOF 1
