REMARK  7 active torsions:
REMARK  status: ('A' for Active; 'I' for Inactive)
REMARK       I    between atoms: C_2  and  N_3 
REMARK    1  A    between atoms: C_2  and  C_23 
REMARK    2  A    between atoms: N_3  and  C_4 
REMARK    3  A    between atoms: C_4  and  C_5 
REMARK    4  A    between atoms: C_5  and  C_6 
REMARK    5  A    between atoms: C_6  and  C_7 
REMARK    6  A    between atoms: C_6  and  N_9 
REMARK    7  A    between atoms: N_12  and  C_13 
ROOT
ATOM      1  C   UNL d   1       8.957   5.915 -10.549  0.00  0.00     0.256 C 
ENDROOT
BRANCH   1   2
ATOM      2  C   UNL d   1      10.048   6.959 -10.880  0.00  0.00     0.063 C 
BRANCH   2   3
ATOM      3  C   UNL d   1       9.819   8.389 -10.335  0.00  0.00     0.131 C 
BRANCH   3   4
ATOM      4  N   UNL d   1      10.092   8.476  -8.902  0.00  0.00    -0.233 NA
ATOM      5  C   UNL d   1      11.324   8.397  -8.373  0.00  0.00     0.298 C 
ATOM      6  O   UNL d   1      12.350   8.250  -9.034  0.00  0.00    -0.263 OA
BRANCH   5   7
ATOM      7  C   UNL d   1      11.404   8.488  -6.915  0.00  0.00     0.157 A 
ATOM      8  O   UNL d   1      11.426   7.314  -6.214  0.00  0.00    -0.302 OA
ATOM      9  C   UNL d   1      11.559   7.643  -4.889  0.00  0.00     0.100 A 
ATOM     10  C   UNL d   1      11.642   9.047  -4.757  0.00  0.00     0.025 A 
ATOM     11  C   UNL d   1      11.661   6.757  -3.811  0.00  0.00     0.025 A 
ATOM     12  C   UNL d   1      11.535   9.577  -6.086  0.00  0.00     0.032 A 
ATOM     13  C   UNL d   1      11.821   9.550  -3.446  0.00  0.00     0.002 A 
ATOM     14  C   UNL d   1      11.931   8.677  -2.349  0.00  0.00     0.000 A 
ATOM     15  C   UNL d   1      11.853   7.284  -2.521  0.00  0.00     0.002 A 
ENDBRANCH   5   7
ENDBRANCH   3   4
ENDBRANCH   2   3
ENDBRANCH   1   2
BRANCH   1  16
ATOM     16  C   UNL d   1       9.484   4.810  -9.606  0.00  0.00     0.227 C 
ATOM     17  F   UNL d   1       8.518   4.315  -8.842  0.00  0.00    -0.232 F 
ENDBRANCH   1  16
BRANCH   1  18
ATOM     18  N   UNL d   1       8.350   5.427 -11.797  0.00  0.00     0.142 N 
ATOM     19  C   UNL d   1       6.970   5.000 -11.607  0.00  0.00     0.274 C 
ATOM     20  C   UNL d   1       6.312   4.527 -12.935  0.00  0.00     0.137 C 
ATOM     21  N   UNL d   1       7.122   3.539 -13.658  0.00  0.00    -0.344 N 
ATOM     22  C   UNL d   1       8.525   3.903 -13.777  0.00  0.00     0.137 C 
ATOM     23  C   UNL d   1       9.126   4.353 -12.417  0.00  0.00     0.274 C 
BRANCH  21  24
ATOM     24  C   UNL d   1       6.619   2.283 -14.041  0.00  0.00     0.068 A 
ATOM     25  C   UNL d   1       7.035   1.592 -15.203  0.00  0.00     0.084 A 
ATOM     26  C   UNL d   1       6.472   0.340 -15.539  0.00  0.00     0.070 A 
ATOM     27 CL   UNL d   1       8.234   2.250 -16.270  0.00  0.00    -0.080 Cl
ATOM     28  C   UNL d   1       5.513  -0.257 -14.707  0.00  0.00     0.012 A 
ATOM     29 CL   UNL d   1       6.890  -0.422 -17.029  0.00  0.00    -0.081 Cl
ATOM     30  C   UNL d   1       5.087   0.417 -13.559  0.00  0.00     0.002 A 
ATOM     31  C   UNL d   1       5.638   1.666 -13.228  0.00  0.00     0.018 A 
ENDBRANCH  21  24
ENDBRANCH   1  18
TORSDOF 7
