REMARK  8 active torsions:
REMARK  status: ('A' for Active; 'I' for Inactive)
REMARK    1  A    between atoms: C_2  and  C_3 
REMARK    2  A    between atoms: C_7  and  N_8 
REMARK    3  A    between atoms: N_11  and  C_12 
REMARK    4  A    between atoms: C_12  and  C_13 
REMARK    5  A    between atoms: C_13  and  C_14 
REMARK    6  A    between atoms: C_14  and  C_15 
REMARK    7  A    between atoms: C_15  and  N_16 
REMARK       I    between atoms: N_16  and  C_17 
REMARK    8  A    between atoms: C_17  and  C_19 
ROOT
ATOM      1  C   UNL d   1      10.317   7.075 -10.194  0.00  0.00     0.251 C 
ENDROOT
BRANCH   1   2
ATOM      2  N   UNL d   1      10.205   8.008  -9.081  0.00  0.00     0.141 N 
ATOM      3  C   UNL d   1       9.585   7.300  -7.963  0.00  0.00     0.274 C 
ATOM      4  C   UNL d   1       9.415   8.252  -6.768  0.00  0.00     0.137 C 
ATOM      5  N   UNL d   1      10.661   8.931  -6.437  0.00  0.00    -0.344 N 
ATOM      6  C   UNL d   1      11.522   9.440  -7.472  0.00  0.00     0.137 C 
ATOM      7  C   UNL d   1      11.550   8.488  -8.697  0.00  0.00     0.274 C 
BRANCH   5   8
ATOM      8  C   UNL d   1      11.185   8.868  -5.164  0.00  0.00     0.067 A 
ATOM      9  C   UNL d   1      11.216  10.027  -4.372  0.00  0.00     0.018 A 
ATOM     10  C   UNL d   1      11.822   9.984  -3.107  0.00  0.00     0.001 A 
ATOM     11  C   UNL d   1      12.378   8.802  -2.599  0.00  0.00    -0.003 A 
ATOM     12  C   UNL d   1      12.306   7.614  -3.379  0.00  0.00    -0.010 A 
ATOM     13  C   UNL d   1      11.741   7.689  -4.656  0.00  0.00     0.069 A 
ATOM     14 CL   UNL d   1      11.830   6.384  -5.772  0.00  0.00    -0.081 Cl
BRANCH  12  15
ATOM     15  C   UNL d   1      12.865   6.297  -2.878  0.00  0.00     0.027 C 
ATOM     16  C   UNL d   1      12.616   6.059  -1.464  0.00  0.00     0.005 C 
ENDBRANCH  12  15
ENDBRANCH   5   8
ENDBRANCH   1   2
BRANCH   1  17
ATOM     17  C   UNL d   1       8.980   6.835 -10.930  0.00  0.00     0.037 C 
BRANCH  17  18
ATOM     18  C   UNL d   1       9.093   6.001 -12.192  0.00  0.00     0.029 C 
BRANCH  18  19
ATOM     19  C   UNL d   1       9.175   4.493 -11.895  0.00  0.00     0.129 C 
BRANCH  19  20
ATOM     20  N   UNL d   1       9.415   3.689 -13.080  0.00  0.00    -0.233 NA
ATOM     21  C   UNL d   1      10.402   3.787 -13.986  0.00  0.00     0.294 C 
ATOM     22  O   UNL d   1      11.292   4.638 -13.940  0.00  0.00    -0.264 OA
BRANCH  21  23
ATOM     23  C   UNL d   1      10.370   2.719 -15.037  0.00  0.00     0.153 A 
ATOM     24  C   UNL d   1       9.363   1.810 -15.309  0.00  0.00     0.066 A 
ATOM     25  N   UNL d   1       9.849   1.051 -16.370  0.00  0.00    -0.287 N 
ATOM     26  C   UNL d   1       8.016   1.559 -14.692  0.00  0.00     0.052 C 
ATOM     27  C   UNL d   1      11.085   1.587 -16.674  0.00  0.00     0.179 A 
ATOM     28  C   UNL d   1       9.424  -0.000 -17.118  0.00  0.00     0.089 A 
ATOM     29  N   UNL d   1      11.439   2.583 -15.923  0.00  0.00    -0.216 NA
ATOM     30  S   UNL d   1      11.698   0.648 -18.027  0.00  0.00    -0.048 SA
ATOM     31  C   UNL d   1      10.300  -0.401 -18.092  0.00  0.00     0.057 A 
ENDBRANCH  21  23
ENDBRANCH  19  20
ENDBRANCH  18  19
ENDBRANCH  17  18
ENDBRANCH   1  17
TORSDOF 8
