REMARK  7 active torsions:
REMARK  status: ('A' for Active; 'I' for Inactive)
REMARK    1  A    between atoms: C_7  and  N_8 
REMARK    2  A    between atoms: N_11  and  C_12 
REMARK    3  A    between atoms: C_12  and  C_13 
REMARK    4  A    between atoms: C_13  and  C_14 
REMARK    5  A    between atoms: C_14  and  O_15 
REMARK    6  A    between atoms: O_15  and  C_16 
REMARK    7  A    between atoms: C_19  and  C_20 
ROOT
ATOM      1  C   UNL d   1       8.108   6.675 -12.358  0.00  0.00     0.151 C 
ENDROOT
BRANCH   1   2
ATOM      2  C   UNL d   1       7.787   5.194 -12.520  0.00  0.00     0.068 C 
BRANCH   2   3
ATOM      3  C   UNL d   1       8.407   4.592 -13.793  0.00  0.00     0.253 C 
BRANCH   3   4
ATOM      4  N   UNL d   1       8.029   3.191 -13.947  0.00  0.00     0.141 N 
ATOM      5  C   UNL d   1       8.645   2.635 -15.158  0.00  0.00     0.274 C 
ATOM      6  C   UNL d   1       8.287   1.141 -15.329  0.00  0.00     0.137 C 
ATOM      7  N   UNL d   1       6.835   0.950 -15.290  0.00  0.00    -0.344 N 
ATOM      8  C   UNL d   1       6.187   1.562 -14.140  0.00  0.00     0.137 C 
ATOM      9  C   UNL d   1       6.571   3.032 -14.006  0.00  0.00     0.274 C 
BRANCH   7  10
ATOM     10  C   UNL d   1       6.120   0.250 -16.276  0.00  0.00     0.067 A 
ATOM     11  C   UNL d   1       5.013  -0.604 -15.989  0.00  0.00     0.073 A 
ATOM     12 CL   UNL d   1       4.434  -0.916 -14.399  0.00  0.00    -0.081 Cl
ATOM     13  C   UNL d   1       4.320  -1.265 -17.018  0.00  0.00     0.013 A 
ATOM     14  C   UNL d   1       4.703  -1.093 -18.351  0.00  0.00     0.001 A 
ATOM     15  C   UNL d   1       5.787  -0.260 -18.660  0.00  0.00     0.002 A 
ATOM     16  C   UNL d   1       6.489   0.406 -17.635  0.00  0.00     0.018 A 
ENDBRANCH   7  10
ENDBRANCH   3   4
ENDBRANCH   2   3
ENDBRANCH   1   2
BRANCH   1  17
ATOM     17  O   UNL d   1       9.464   6.921 -12.033  0.00  0.00    -0.331 OA
BRANCH  17  18
ATOM     18  C   UNL d   1       9.786   7.056 -10.706  0.00  0.00     0.094 A 
ATOM     19  C   UNL d   1       9.365   6.171  -9.684  0.00  0.00     0.024 A 
ATOM     20  C   UNL d   1       9.755   6.391  -8.353  0.00  0.00     0.005 A 
ATOM     21  C   UNL d   1      10.565   7.498  -8.022  0.00  0.00     0.036 A 
ATOM     22  C   UNL d   1      11.003   8.368  -9.042  0.00  0.00     0.005 A 
ATOM     23  C   UNL d   1      10.618   8.145 -10.371  0.00  0.00     0.024 A 
BRANCH  21  24
ATOM     24  C   UNL d   1      10.960   7.736  -6.643  0.00  0.00     0.162 A 
ATOM     25  N   UNL d   1      11.304   6.746  -5.797  0.00  0.00    -0.225 NA
ATOM     26  C   UNL d   1      11.612   7.318  -4.581  0.00  0.00     0.101 A 
ATOM     27  C   UNL d   1      11.420   8.708  -4.805  0.00  0.00     0.101 A 
ATOM     28  C   UNL d   1      12.037   6.815  -3.337  0.00  0.00     0.021 A 
ATOM     29  N   UNL d   1      11.013   8.957  -6.104  0.00  0.00    -0.225 NA
ATOM     30  C   UNL d   1      11.635   9.591  -3.727  0.00  0.00     0.021 A 
ATOM     31  C   UNL d   1      12.065   9.095  -2.478  0.00  0.00     0.002 A 
ATOM     32  C   UNL d   1      12.258   7.717  -2.284  0.00  0.00     0.002 A 
ENDBRANCH  21  24
ENDBRANCH  17  18
ENDBRANCH   1  17
TORSDOF 7
