REMARK  2 active torsions:
REMARK  status: ('A' for Active; 'I' for Inactive)
REMARK    1  A    between atoms: N_4  and  C_5 
REMARK    2  A    between atoms: C_8  and  C_9 
ROOT
ATOM      1  C   UNL d   1      12.416   9.183  -1.675  0.00  0.00     0.038 C 
ATOM      2  C   UNL d   1      11.981   8.523  -2.974  0.00  0.00     0.053 A 
ATOM      3  C   UNL d   1      11.456   9.194  -4.039  0.00  0.00     0.083 A 
ATOM      4  N   UNL d   1      11.139   8.552  -5.245  0.00  0.00    -0.253 N 
ATOM      5  C   UNL d   1      11.353   7.156  -5.346  0.00  0.00     0.355 A 
ATOM      6  O   UNL d   1      11.182   6.463  -6.351  0.00  0.00    -0.244 OA
ATOM      7  N   UNL d   1      11.836   6.500  -4.216  0.00  0.00    -0.153 NA
ATOM      8  C   UNL d   1      12.201   7.094  -3.010  0.00  0.00     0.280 A 
ATOM      9  O   UNL d   1      12.678   6.417  -2.117  0.00  0.00    -0.265 OA
ENDROOT
BRANCH   4  10
ATOM     10  C   UNL d   1      10.635   9.257  -6.427  0.00  0.00     0.233 A 
ATOM     11  O   UNL d   1       9.397   8.682  -6.858  0.00  0.00    -0.328 OA
ATOM     12  C   UNL d   1       9.524   8.301  -8.260  0.00  0.00     0.172 A 
ATOM     13  C   UNL d   1      10.946   8.621  -8.640  0.00  0.00     0.005 A 
ATOM     14  C   UNL d   1      11.577   9.165  -7.601  0.00  0.00     0.025 A 
BRANCH  12  15
ATOM     15  C   UNL d   1       9.156   6.804  -8.501  0.00  0.00     0.216 C 
ATOM     16  O   UNL d   1       9.052   6.543  -9.876  0.00  0.00    -0.218 OA
ENDBRANCH  12  15
ENDBRANCH   4  10
TORSDOF 2
