REMARK  10 active torsions:
REMARK  status: ('A' for Active; 'I' for Inactive)
REMARK    1  A    between atoms: S_2  and  C_3 
REMARK    2  A    between atoms: C_8  and  C_9 
REMARK    3  A    between atoms: C_11  and  C_12 
REMARK    4  A    between atoms: C_12  and  N_13 
REMARK    5  A    between atoms: N_13  and  C_14 
REMARK    6  A    between atoms: C_14  and  C_15 
REMARK    7  A    between atoms: C_15  and  C_16 
REMARK    8  A    between atoms: C_16  and  C_17 
REMARK    9  A    between atoms: C_17  and  O_18 
REMARK   10  A    between atoms: O_18  and  C_19 
ROOT
ATOM      1  C   UNL d   1       8.462   5.296 -10.306  0.00  0.00     0.041 C 
ENDROOT
BRANCH   1   2
ATOM      2  C   UNL d   1       8.299   5.565 -11.823  0.00  0.00     0.290 C 
BRANCH   2   3
ATOM      3  N   UNL d   1       7.793   4.351 -12.440  0.00  0.00     0.339 N 
BRANCH   3   4
ATOM      4  C   UNL d   1       8.099   4.356 -13.855  0.00  0.00     0.290 C 
BRANCH   4   5
ATOM      5  C   UNL d   1       8.081   2.937 -14.386  0.00  0.00     0.041 A 
ATOM      6  C   UNL d   1       8.191   2.672 -15.861  0.00  0.00     0.025 A 
ATOM      7  C   UNL d   1       6.877   2.458 -15.161  0.00  0.00     0.007 A 
BRANCH   6   8
ATOM      8  C   UNL d   1       8.955   1.548 -16.420  0.00  0.00    -0.017 A 
ATOM      9  C   UNL d   1      10.364   1.500 -16.340  0.00  0.00     0.021 A 
ATOM     10  C   UNL d   1      11.053   0.397 -16.855  0.00  0.00     0.006 A 
ATOM     11  C   UNL d   1      10.345  -0.676 -17.461  0.00  0.00     0.001 A 
ATOM     12  C   UNL d   1       8.944  -0.608 -17.566  0.00  0.00    -0.000 A 
ATOM     13  C   UNL d   1       8.257   0.497 -17.046  0.00  0.00    -0.004 A 
BRANCH   9  14
ATOM     14  S   UNL d   1      11.255   2.839 -15.585  0.00  0.00    -0.113 SA
ATOM     15  C   UNL d   1      12.817   3.015 -16.479  0.00  0.00     0.074 C 
ENDBRANCH   9  14
ENDBRANCH   6   8
ENDBRANCH   4   5
ENDBRANCH   3   4
ENDBRANCH   2   3
ENDBRANCH   1   2
BRANCH   1  16
ATOM     16  C   UNL d   1       9.060   6.454  -9.514  0.00  0.00     0.035 C 
BRANCH  16  17
ATOM     17  C   UNL d   1      10.433   6.942  -9.969  0.00  0.00     0.149 C 
BRANCH  17  18
ATOM     18  O   UNL d   1      10.789   8.077  -9.161  0.00  0.00    -0.331 OA
BRANCH  18  19
ATOM     19  C   UNL d   1      11.035   7.851  -7.835  0.00  0.00     0.096 A 
ATOM     20  C   UNL d   1      11.154   8.901  -6.891  0.00  0.00     0.043 A 
ATOM     21  C   UNL d   1      11.388   8.629  -5.551  0.00  0.00     0.087 A 
ATOM     22  C   UNL d   1      11.533   7.298  -5.087  0.00  0.00     0.018 A 
ATOM     23  N   UNL d   1      11.527   9.621  -4.558  0.00  0.00    -0.208 NA
ATOM     24  C   UNL d   1      11.481   6.295  -6.023  0.00  0.00     0.004 A 
ATOM     25  C   UNL d   1      11.844   7.017  -3.697  0.00  0.00     0.006 A 
ATOM     26  C   UNL d   1      11.177   6.524  -7.353  0.00  0.00     0.024 A 
ATOM     27  C   UNL d   1      11.954   8.023  -2.823  0.00  0.00     0.063 A 
ATOM     28  C   UNL d   1      11.807   9.414  -3.279  0.00  0.00     0.279 A 
ATOM     29  O   UNL d   1      11.832  10.347  -2.517  0.00  0.00    -0.265 OA
ENDBRANCH  18  19
ENDBRANCH  17  18
ENDBRANCH  16  17
ENDBRANCH   1  16
TORSDOF 10
