REMARK  7 active torsions:
REMARK  status: ('A' for Active; 'I' for Inactive)
REMARK    1  A    between atoms: C_8  and  O_9 
REMARK    2  A    between atoms: O_9  and  C_10 
REMARK    3  A    between atoms: C_10  and  C_11 
REMARK    4  A    between atoms: C_11  and  C_12 
REMARK    5  A    between atoms: C_12  and  C_13 
REMARK    6  A    between atoms: C_13  and  N_14 
REMARK    7  A    between atoms: C_17  and  C_18 
ROOT
ATOM      1  C   UNL d   1       7.263   0.883 -14.353  0.00  0.00     0.038 C 
ENDROOT
BRANCH   1   2
ATOM      2  C   UNL d   1       6.613  -0.240 -15.150  0.00  0.00     0.035 C 
BRANCH   2   3
ATOM      3  C   UNL d   1       5.274   0.203 -15.773  0.00  0.00     0.149 C 
BRANCH   3   4
ATOM      4  O   UNL d   1       4.573  -0.905 -16.311  0.00  0.00    -0.331 OA
BRANCH   4   5
ATOM      5  C   UNL d   1       4.952  -1.373 -17.549  0.00  0.00     0.096 A 
ATOM      6  C   UNL d   1       6.047  -0.870 -18.302  0.00  0.00     0.024 A 
ATOM      7  C   UNL d   1       6.350  -1.403 -19.559  0.00  0.00    -0.001 A 
ATOM      8  C   UNL d   1       5.561  -2.439 -20.090  0.00  0.00    -0.004 A 
ATOM      9  C   UNL d   1       5.883  -3.052 -21.436  0.00  0.00     0.038 C 
ATOM     10  C   UNL d   1       4.468  -2.945 -19.354  0.00  0.00     0.082 A 
ATOM     11  C   UNL d   1       4.620  -3.595 -22.127  0.00  0.00     0.095 C 
ATOM     12  C   UNL d   1       3.714  -4.383 -21.166  0.00  0.00     0.256 C 
ATOM     13  O   UNL d   1       3.042  -5.321 -21.585  0.00  0.00    -0.270 OA
ATOM     14  N   UNL d   1       3.673  -3.988 -19.882  0.00  0.00    -0.212 NA
ATOM     15  C   UNL d   1       4.178  -2.417 -18.085  0.00  0.00     0.043 A 
ENDBRANCH   4   5
ENDBRANCH   3   4
ENDBRANCH   2   3
ENDBRANCH   1   2
BRANCH   1  16
ATOM     16  C   UNL d   1       7.604   2.138 -15.200  0.00  0.00     0.250 C 
BRANCH  16  17
ATOM     17  N   UNL d   1       7.988   3.292 -14.395  0.00  0.00     0.137 N 
ATOM     18  C   UNL d   1       6.907   3.697 -13.486  0.00  0.00     0.251 C 
ATOM     19  C   UNL d   1       7.295   4.963 -12.721  0.00  0.00     0.040 C 
ATOM     20  C   UNL d   1       8.621   4.766 -11.966  0.00  0.00     0.027 C 
ATOM     21  C   UNL d   1       9.712   4.272 -12.935  0.00  0.00     0.040 C 
ATOM     22  C   UNL d   1       9.246   3.033 -13.701  0.00  0.00     0.251 C 
BRANCH  20  23
ATOM     23  C   UNL d   1       9.060   6.032 -11.245  0.00  0.00    -0.011 A 
ATOM     24  C   UNL d   1       9.446   6.062  -9.876  0.00  0.00     0.064 A 
ATOM     25  C   UNL d   1       9.853   7.284  -9.285  0.00  0.00     0.068 A 
ATOM     26 CL   UNL d   1       9.432   4.634  -8.902  0.00  0.00    -0.082 Cl
ATOM     27  C   UNL d   1       9.866   8.464 -10.055  0.00  0.00     0.012 A 
ATOM     28 CL   UNL d   1      10.360   7.354  -7.633  0.00  0.00    -0.082 Cl
ATOM     29  C   UNL d   1       9.467   8.430 -11.398  0.00  0.00     0.001 A 
ATOM     30  C   UNL d   1       9.077   7.224 -11.992  0.00  0.00    -0.003 A 
ENDBRANCH  20  23
ENDBRANCH  16  17
ENDBRANCH   1  16
TORSDOF 7
