REMARK  4 active torsions:
REMARK  status: ('A' for Active; 'I' for Inactive)
REMARK    1  A    between atoms: C_4  and  N_5 
REMARK    2  A    between atoms: C_7  and  C_8 
REMARK    3  A    between atoms: C_8  and  N_9 
REMARK    4  A    between atoms: N_12  and  C_13 
ROOT
ATOM      1  N   UNL d   1      10.021   4.497 -13.695  0.00  0.00     0.146 N 
ATOM      2  C   UNL d   1      10.269   4.784 -15.109  0.00  0.00     0.275 C 
ATOM      3  C   UNL d   1      11.312   3.812 -15.682  0.00  0.00     0.155 C 
ATOM      4  N   UNL d   1      10.829   2.437 -15.566  0.00  0.00    -0.179 N 
ATOM      5  C   UNL d   1      10.469   2.106 -14.195  0.00  0.00     0.155 C 
ATOM      6  C   UNL d   1       9.478   3.139 -13.624  0.00  0.00     0.275 C 
ENDROOT
BRANCH   1   7
ATOM      7  C   UNL d   1       9.039   5.432 -13.143  0.00  0.00     0.280 C 
BRANCH   7   8
ATOM      8  C   UNL d   1       9.116   5.569 -11.645  0.00  0.00     0.051 A 
ATOM      9  C   UNL d   1       9.819   6.487 -10.916  0.00  0.00     0.100 A 
ATOM     10  N   UNL d   1       9.625   6.223  -9.578  0.00  0.00    -0.229 N 
ATOM     11  N   UNL d   1       8.794   5.161  -9.420  0.00  0.00    -0.164 NA
ATOM     12  C   UNL d   1       8.451   4.805 -10.647  0.00  0.00     0.120 A 
BRANCH  10  13
ATOM     13  C   UNL d   1      10.174   6.923  -8.468  0.00  0.00     0.083 A 
ATOM     14  C   UNL d   1      11.242   7.843  -8.638  0.00  0.00     0.019 A 
ATOM     15  C   UNL d   1      11.791   8.512  -7.528  0.00  0.00     0.002 A 
ATOM     16  C   UNL d   1      11.281   8.273  -6.239  0.00  0.00     0.000 A 
ATOM     17  C   UNL d   1      10.229   7.356  -6.064  0.00  0.00     0.002 A 
ATOM     18  C   UNL d   1       9.664   6.704  -7.172  0.00  0.00     0.019 A 
ENDBRANCH  10  13
ENDBRANCH   7   8
ENDBRANCH   1   7
BRANCH   4  19
ATOM     19  C   UNL d   1      10.790   1.517 -16.612  0.00  0.00     0.727 A 
ATOM     20  N   UNL d   1      10.320   0.293 -16.355  0.00  0.00    -0.060 NA
ATOM     21  C   UNL d   1      10.240  -0.577 -17.381  0.00  0.00     0.120 A 
ATOM     22  C   UNL d   1      10.644  -0.222 -18.679  0.00  0.00     0.043 A 
ATOM     23  C   UNL d   1      11.132   1.086 -18.836  0.00  0.00     0.120 A 
ATOM     24  N   UNL d   1      11.205   1.947 -17.806  0.00  0.00    -0.060 NA
ENDBRANCH   4  19
TORSDOF 4
