REMARK  9 active torsions:
REMARK  status: ('A' for Active; 'I' for Inactive)
REMARK    1  A    between atoms: O_2  and  C_3 
REMARK    2  A    between atoms: C_3  and  C_4 
REMARK    3  A    between atoms: C_4  and  N_5 
REMARK    4  A    between atoms: N_5  and  C_6 
REMARK    5  A    between atoms: N_5  and  C_10 
REMARK    6  A    between atoms: C_6  and  C_7 
REMARK    7  A    between atoms: C_7  and  O_8 
REMARK    8  A    between atoms: C_16  and  C_17 
REMARK    9  A    between atoms: C_20  and  O_21 
ROOT
ATOM      1  C   UNL d   1       8.599   2.368 -15.700  0.00  0.00     0.731 A 
ATOM      2  N   UNL d   1       8.659   2.749 -14.466  0.00  0.00    -0.046 NA
ATOM      3  C   UNL d   1       9.577   3.701 -14.102  0.00  0.00     0.160 A 
ATOM      4  C   UNL d   1       9.626   4.073 -12.639  0.00  0.00     0.074 C 
ATOM      5  N   UNL d   1      10.405   4.299 -14.965  0.00  0.00    -0.211 NA
ATOM      6  C   UNL d   1      10.306   3.944 -16.265  0.00  0.00     0.184 A 
ATOM      7  C   UNL d   1      10.943   4.317 -17.425  0.00  0.00     0.051 A 
ATOM      8  C   UNL d   1      10.400   3.519 -18.470  0.00  0.00     0.083 A 
ATOM      9  C   UNL d   1      10.815   3.511 -19.926  0.00  0.00     0.054 C 
ATOM     10  N   UNL d   1       9.436   2.738 -18.034  0.00  0.00    -0.154 NA
ATOM     11  N   UNL d   1       9.392   2.958 -16.666  0.00  0.00    -0.042 N 
ENDROOT
BRANCH   1  12
ATOM     12  N   UNL d   1       7.724   1.308 -16.020  0.00  0.00    -0.178 N 
BRANCH  12  13
ATOM     13  C   UNL d   1       8.270   0.161 -16.731  0.00  0.00     0.152 C 
BRANCH  13  14
ATOM     14  C   UNL d   1       9.619  -0.327 -16.126  0.00  0.00     0.167 C 
BRANCH  14  15
ATOM     15  O   UNL d   1      10.243  -1.258 -16.999  0.00  0.00    -0.349 OA
ATOM     16  C   UNL d   1      10.822  -0.670 -18.153  0.00  0.00     0.174 C 
ENDBRANCH  14  15
ENDBRANCH  13  14
ENDBRANCH  12  13
BRANCH  12  17
ATOM     17  C   UNL d   1       6.484   1.163 -15.266  0.00  0.00     0.152 C 
BRANCH  17  18
ATOM     18  C   UNL d   1       6.594   0.097 -14.151  0.00  0.00     0.167 C 
BRANCH  18  19
ATOM     19  O   UNL d   1       5.358  -0.000 -13.454  0.00  0.00    -0.349 OA
ATOM     20  C   UNL d   1       4.309  -0.612 -14.194  0.00  0.00     0.174 C 
ENDBRANCH  18  19
ENDBRANCH  17  18
ENDBRANCH  12  17
ENDBRANCH   1  12
BRANCH   7  21
ATOM     21  C   UNL d   1      11.967   5.342 -17.526  0.00  0.00     0.000 A 
ATOM     22  C   UNL d   1      11.709   6.552 -18.229  0.00  0.00    -0.020 A 
ATOM     23  C   UNL d   1      12.722   7.520 -18.302  0.00  0.00     0.020 A 
ATOM     24  C   UNL d   1      10.364   6.876 -18.879  0.00  0.00     0.031 C 
ATOM     25  C   UNL d   1      13.970   7.342 -17.678  0.00  0.00     0.094 A 
ATOM     26  C   UNL d   1      14.224   6.134 -16.970  0.00  0.00     0.024 A 
ATOM     27  C   UNL d   1      13.218   5.141 -16.890  0.00  0.00     0.002 A 
BRANCH  25  28
ATOM     28  O   UNL d   1      14.987   8.274 -17.716  0.00  0.00    -0.328 OA
ATOM     29  C   UNL d   1      14.640   9.626 -18.051  0.00  0.00     0.181 C 
ENDBRANCH  25  28
ENDBRANCH   7  21
TORSDOF 9
