REMARK  3 active torsions:
REMARK  status: ('A' for Active; 'I' for Inactive)
REMARK       I    between atoms: C_2  and  N_4 
REMARK    1  A    between atoms: N_4  and  C_5 
REMARK    2  A    between atoms: C_5  and  C_6 
REMARK    3  A    between atoms: C_6  and  N_7 
ROOT
ATOM      1  N   UNL d   1      11.450   7.586  -5.893  0.00  0.00     0.139 N 
ATOM      2  C   UNL d   1      10.889   8.874  -5.515  0.00  0.00     0.250 C 
ATOM      3  C   UNL d   1      11.875   9.778  -4.781  0.00  0.00     0.035 C 
ATOM      4  C   UNL d   1      11.556   9.894  -3.284  0.00  0.00     0.002 C 
ATOM      5  C   UNL d   1      12.225   8.892  -2.325  0.00  0.00     0.000 C 
ATOM      6  C   UNL d   1      11.805   7.420  -2.439  0.00  0.00     0.002 C 
ATOM      7  C   UNL d   1      12.361   6.757  -3.696  0.00  0.00     0.035 C 
ATOM      8  C   UNL d   1      11.389   6.550  -4.851  0.00  0.00     0.250 C 
ENDROOT
BRANCH   1   9
ATOM      9  C   UNL d   1      10.822   7.109  -7.123  0.00  0.00     0.277 C 
BRANCH   9  10
ATOM     10  C   UNL d   1       9.296   6.812  -6.981  0.00  0.00     0.180 C 
BRANCH  10  11
ATOM     11  N   UNL d   1       8.664   6.546  -8.253  0.00  0.00    -0.081 NA
ATOM     12  C   UNL d   1       8.938   5.518  -9.122  0.00  0.00     0.782 C 
ATOM     13  N   UNL d   1       9.743   4.560  -8.861  0.00  0.00     0.063 N 
ATOM     14  N   UNL d   1       8.255   5.584 -10.306  0.00  0.00     0.063 N 
ENDBRANCH  10  11
ENDBRANCH   9  10
ENDBRANCH   1   9
TORSDOF 3
