REMARK  6 active torsions:
REMARK  status: ('A' for Active; 'I' for Inactive)
REMARK    1  A    between atoms: C_2  and  C_3 
REMARK    2  A    between atoms: C_2  and  C_18 
REMARK    3  A    between atoms: C_3  and  C_4 
REMARK    4  A    between atoms: C_4  and  C_5 
REMARK    5  A    between atoms: C_5  and  N_6 
REMARK    6  A    between atoms: N_9  and  C_10 
ROOT
ATOM      1  N   UNL d   1       7.833   5.229 -12.278  0.00  0.00     0.141 N 
ATOM      2  C   UNL d   1       8.765   4.214 -12.775  0.00  0.00     0.275 C 
ATOM      3  C   UNL d   1       8.244   3.649 -14.102  0.00  0.00     0.155 C 
ATOM      4  N   UNL d   1       6.899   3.087 -13.933  0.00  0.00    -0.179 N 
ATOM      5  C   UNL d   1       5.955   4.014 -13.301  0.00  0.00     0.155 C 
ATOM      6  C   UNL d   1       6.551   4.582 -12.005  0.00  0.00     0.275 C 
ENDROOT
BRANCH   1   7
ATOM      7  C   UNL d   1       8.300   5.763 -11.006  0.00  0.00     0.251 C 
BRANCH   7   8
ATOM      8  C   UNL d   1       9.556   6.636 -11.152  0.00  0.00     0.043 C 
BRANCH   8   9
ATOM      9  C   UNL d   1       9.868   7.523  -9.929  0.00  0.00     0.071 C 
BRANCH   9  10
ATOM     10  C   UNL d   1      10.109   6.777  -8.607  0.00  0.00     0.173 C 
ATOM     11  O   UNL d   1       9.956   5.556  -8.540  0.00  0.00    -0.291 OA
BRANCH  10  12
ATOM     12  C   UNL d   1      10.591   7.559  -7.441  0.00  0.00     0.035 A 
ATOM     13  C   UNL d   1      10.611   8.971  -7.432  0.00  0.00     0.005 A 
ATOM     14  C   UNL d   1      11.068   9.659  -6.288  0.00  0.00     0.030 A 
ATOM     15  C   UNL d   1      11.480   8.940  -5.145  0.00  0.00     0.140 A 
ATOM     16  C   UNL d   1      11.455   7.535  -5.146  0.00  0.00     0.030 A 
ATOM     17  F   UNL d   1      11.907   9.593  -4.041  0.00  0.00    -0.204 F 
ATOM     18  C   UNL d   1      11.009   6.856  -6.290  0.00  0.00     0.005 A 
ENDBRANCH  10  12
ENDBRANCH   9  10
ENDBRANCH   8   9
ENDBRANCH   7   8
ENDBRANCH   1   7
BRANCH   4  19
ATOM     19  C   UNL d   1       6.565   1.796 -14.287  0.00  0.00     0.727 A 
ATOM     20  N   UNL d   1       5.550   1.222 -13.638  0.00  0.00    -0.060 NA
ATOM     21  C   UNL d   1       5.190  -0.015 -14.008  0.00  0.00     0.120 A 
ATOM     22  C   UNL d   1       5.860  -0.700 -15.035  0.00  0.00     0.043 A 
ATOM     23  C   UNL d   1       6.912  -0.008 -15.655  0.00  0.00     0.120 A 
ATOM     24  N   UNL d   1       7.266   1.232 -15.282  0.00  0.00    -0.060 NA
ENDBRANCH   4  19
TORSDOF 6
