REMARK  4 active torsions:
REMARK  status: ('A' for Active; 'I' for Inactive)
REMARK       I    between atoms: C_2  and  N_3 
REMARK    1  A    between atoms: C_2  and  C_18 
REMARK    2  A    between atoms: N_3  and  C_4 
REMARK    3  A    between atoms: C_4  and  N_5 
REMARK    4  A    between atoms: N_8  and  C_9 
ROOT
ATOM      1  N   UNL d   1       9.137   5.881 -11.085  0.00  0.00    -0.232 NA
ATOM      2  C   UNL d   1       8.667   5.340  -9.798  0.00  0.00     0.102 C 
ATOM      3  C   UNL d   1       9.834   5.214  -8.802  0.00  0.00     0.119 C 
ATOM      4  N   UNL d   1      10.497   6.495  -8.651  0.00  0.00    -0.345 N 
ATOM      5  C   UNL d   1      10.876   7.189  -9.868  0.00  0.00     0.119 C 
ATOM      6  C   UNL d   1       9.694   7.224 -10.850  0.00  0.00     0.102 C 
ENDROOT
BRANCH   1   7
ATOM      7  C   UNL d   1       8.018   5.975 -12.013  0.00  0.00     0.152 C 
BRANCH   7   8
ATOM      8  N   UNL d   1       7.558   4.724 -12.597  0.00  0.00    -0.194 NA
ATOM      9  C   UNL d   1       8.104   4.148 -13.679  0.00  0.00     0.280 C 
ATOM     10  O   UNL d   1       9.021   4.655 -14.325  0.00  0.00    -0.265 OA
BRANCH   9  11
ATOM     11  C   UNL d   1       7.556   2.796 -14.054  0.00  0.00     0.058 A 
ATOM     12  C   UNL d   1       6.254   2.391 -13.672  0.00  0.00     0.005 A 
ATOM     13  C   UNL d   1       5.787   1.101 -13.997  0.00  0.00     0.000 A 
ATOM     14  C   UNL d   1       6.597   0.213 -14.725  0.00  0.00     0.000 A 
ATOM     15  C   UNL d   1       7.884   0.611 -15.126  0.00  0.00     0.000 A 
ATOM     16  C   UNL d   1       8.363   1.893 -14.791  0.00  0.00     0.005 A 
ENDBRANCH   9  11
ENDBRANCH   7   8
ENDBRANCH   1   7
BRANCH   4  17
ATOM     17  C   UNL d   1      10.687   7.088  -7.383  0.00  0.00     0.067 A 
ATOM     18  C   UNL d   1      10.148   8.350  -7.056  0.00  0.00     0.073 A 
ATOM     19  C   UNL d   1      10.392   8.927  -5.804  0.00  0.00     0.013 A 
ATOM     20 CL   UNL d   1       9.099   9.174  -8.120  0.00  0.00    -0.081 Cl
ATOM     21  C   UNL d   1      11.127   8.238  -4.838  0.00  0.00     0.001 A 
ATOM     22  C   UNL d   1      11.616   6.955  -5.123  0.00  0.00     0.002 A 
ATOM     23  C   UNL d   1      11.442   6.403  -6.411  0.00  0.00     0.018 A 
ENDBRANCH   4  17
TORSDOF 4
