REMARK  5 active torsions:
REMARK  status: ('A' for Active; 'I' for Inactive)
REMARK    1  A    between atoms: N_3  and  C_4 
REMARK    2  A    between atoms: C_4  and  C_5 
REMARK    3  A    between atoms: C_5  and  N_6 
REMARK    4  A    between atoms: N_17  and  C_18 
REMARK    5  A    between atoms: C_18  and  C_19 
ROOT
ATOM      1  O   UNL d   1       9.855   3.963 -11.450  0.00  0.00    -0.247 OA
ATOM      2  C   UNL d   1       9.045   4.791 -11.791  0.00  0.00     0.324 A 
ATOM      3  N   UNL d   1       8.506   5.709 -11.005  0.00  0.00    -0.299 N 
ATOM      4  C   UNL d   1       7.538   6.512 -11.710  0.00  0.00     0.130 A 
ATOM      5  C   UNL d   1       7.570   5.956 -13.113  0.00  0.00     0.130 A 
ATOM      6  N   UNL d   1       8.538   4.890 -13.028  0.00  0.00    -0.297 N 
ENDROOT
BRANCH   3   7
ATOM      7  C   UNL d   1       8.790   5.928  -9.586  0.00  0.00     0.141 C 
BRANCH   7   8
ATOM      8  C   UNL d   1       9.807   7.063  -9.408  0.00  0.00     0.275 C 
BRANCH   8   9
ATOM      9  N   UNL d   1       9.934   7.439  -8.010  0.00  0.00     0.148 N 
ATOM     10  C   UNL d   1      10.592   6.443  -7.158  0.00  0.00     0.277 C 
ATOM     11  C   UNL d   1      11.058   7.258  -5.987  0.00  0.00     0.009 A 
ATOM     12  C   UNL d   1      11.093   8.589  -6.359  0.00  0.00     0.009 A 
ATOM     13  C   UNL d   1      11.453   6.838  -4.707  0.00  0.00    -0.003 A 
ATOM     14  C   UNL d   1      10.661   8.697  -7.795  0.00  0.00     0.277 C 
ATOM     15  C   UNL d   1      11.513   9.591  -5.470  0.00  0.00    -0.003 A 
ATOM     16  C   UNL d   1      11.898   9.193  -4.168  0.00  0.00    -0.000 A 
ATOM     17  C   UNL d   1      11.875   7.827  -3.791  0.00  0.00    -0.000 A 
ENDBRANCH   8   9
ENDBRANCH   7   8
ENDBRANCH   3   7
BRANCH   6  18
ATOM     18  C   UNL d   1       8.857   4.009 -14.150  0.00  0.00     0.133 C 
BRANCH  18  19
ATOM     19  C   UNL d   1       7.958   2.785 -14.258  0.00  0.00     0.000 A 
ATOM     20  C   UNL d   1       6.655   2.761 -13.697  0.00  0.00    -0.002 A 
ATOM     21  C   UNL d   1       5.860   1.614 -13.789  0.00  0.00     0.011 A 
ATOM     22  C   UNL d   1       6.327   0.477 -14.466  0.00  0.00     0.058 A 
ATOM     23  C   UNL d   1       7.625   0.478 -15.021  0.00  0.00     0.011 A 
ATOM     24 CL   UNL d   1       5.300  -0.901 -14.608  0.00  0.00    -0.082 Cl
ATOM     25  C   UNL d   1       8.436   1.629 -14.915  0.00  0.00    -0.002 A 
ENDBRANCH  18  19
ENDBRANCH   6  18
TORSDOF 5
