REMARK  2 active torsions:
REMARK  status: ('A' for Active; 'I' for Inactive)
REMARK    1  A    between atoms: C_2  and  C_3 
REMARK    2  A    between atoms: C_3  and  N_4 
ROOT
ATOM      1  N   UNL d   1       9.768   6.822  -8.684  0.00  0.00     0.135 N 
ATOM      2  C   UNL d   1      10.166   7.178 -10.026  0.00  0.00     0.250 C 
ATOM      3  C   UNL d   1      10.079   8.670 -10.250  0.00  0.00     0.035 C 
ATOM      4  C   UNL d   1      11.111   9.344  -9.361  0.00  0.00     0.004 C 
ATOM      5  C   UNL d   1      10.828   8.968  -7.896  0.00  0.00     0.038 C 
ATOM      6  C   UNL d   1      11.886   9.633  -6.971  0.00  0.00     0.049 C 
ATOM      7  C   UNL d   1      11.864   9.045  -5.606  0.00  0.00     0.078 A 
ATOM      8  N   UNL d   1      12.542   9.575  -4.605  0.00  0.00    -0.153 NA
ATOM      9  N   UNL d   1      12.289   8.732  -3.588  0.00  0.00    -0.147 NA
ATOM     10  C   UNL d   1      11.476   7.681  -3.939  0.00  0.00     0.119 A 
ATOM     11  C   UNL d   1      11.164   7.873  -5.258  0.00  0.00     0.016 A 
ATOM     12  C   UNL d   1      10.328   7.078  -6.220  0.00  0.00     0.062 C 
ATOM     13  C   UNL d   1      10.727   7.416  -7.691  0.00  0.00     0.224 C 
ENDROOT
BRANCH   1  14
ATOM     14  C   UNL d   1       9.680   5.361  -8.601  0.00  0.00     0.250 C 
BRANCH  14  15
ATOM     15  C   UNL d   1       8.301   4.850  -9.057  0.00  0.00     0.035 C 
ATOM     16  C   UNL d   1       8.056   4.881 -10.571  0.00  0.00     0.002 C 
ENDBRANCH  14  15
ENDBRANCH   1  14
TORSDOF 2
