REMARK  0 active torsions:
REMARK  status: ('A' for Active; 'I' for Inactive)
ROOT
ATOM      1  C   UNL d   1      12.374   8.039  -2.315  0.00  0.00    -0.000 A 
ATOM      2  C   UNL d   1      12.419   6.758  -2.886  0.00  0.00     0.000 A 
ATOM      3  C   UNL d   1      11.937   6.559  -4.190  0.00  0.00     0.001 A 
ATOM      4  C   UNL d   1      11.454   7.597  -4.995  0.00  0.00     0.015 A 
ATOM      5  C   UNL d   1      11.431   8.886  -4.399  0.00  0.00    -0.021 A 
ATOM      6  C   UNL d   1      11.870   9.100  -3.075  0.00  0.00    -0.004 A 
ATOM      7  C   UNL d   1      10.864  10.057  -5.125  0.00  0.00     0.027 C 
ATOM      8  C   UNL d   1      11.557  10.290  -6.455  0.00  0.00     0.009 C 
ATOM      9  C   UNL d   1      10.915   9.541  -7.634  0.00  0.00     0.030 C 
ATOM     10  C   UNL d   1      10.783   8.094  -7.475  0.00  0.00     0.018 A 
ATOM     11  C   UNL d   1      10.289   7.213  -8.484  0.00  0.00     0.119 A 
ATOM     12  N   UNL d   1      10.266   5.980  -8.091  0.00  0.00    -0.147 NA
ATOM     13  N   UNL d   1      10.736   6.061  -6.835  0.00  0.00    -0.148 NA
ATOM     14  C   UNL d   1      11.015   7.329  -6.383  0.00  0.00     0.100 A 
ENDROOT
TORSDOF 0
