REMARK  8 active torsions:
REMARK  status: ('A' for Active; 'I' for Inactive)
REMARK    1  A    between atoms: C_2  and  C_3 
REMARK       I    between atoms: C_2  and  N_9 
REMARK    2  A    between atoms: C_3  and  C_4 
REMARK    3  A    between atoms: C_4  and  C_5 
REMARK    4  A    between atoms: N_9  and  C_10 
REMARK    5  A    between atoms: C_13  and  C_14 
REMARK    6  A    between atoms: C_14  and  C_15 
REMARK    7  A    between atoms: C_15  and  N_16 
REMARK    8  A    between atoms: N_19  and  C_20 
ROOT
ATOM      1  C   UNL d   1       9.247   6.482 -10.965  0.00  0.00     0.035 C 
ENDROOT
BRANCH   1   2
ATOM      2  C   UNL d   1      10.238   6.919  -9.868  0.00  0.00     0.002 C 
ATOM      3  C   UNL d   1      10.419   8.447  -9.865  0.00  0.00     0.002 C 
ATOM      4  C   UNL d   1      11.379   8.908  -8.760  0.00  0.00     0.024 C 
ATOM      5  C   UNL d   1      10.889   8.437  -7.381  0.00  0.00     0.106 C 
ATOM      6  C   UNL d   1      10.750   6.900  -7.373  0.00  0.00     0.024 C 
ATOM      7  C   UNL d   1       9.798   6.424  -8.477  0.00  0.00     0.002 C 
BRANCH   5   8
ATOM      8  N   UNL d   1      11.859   8.842  -6.367  0.00  0.00    -0.240 NA
ATOM      9  C   UNL d   1      11.599   9.343  -5.151  0.00  0.00     0.252 C 
ATOM     10  O   UNL d   1      10.579   9.964  -4.869  0.00  0.00    -0.271 OA
BRANCH   9  11
ATOM     11  C   UNL d   1      12.636   9.051  -4.055  0.00  0.00     0.098 C 
BRANCH  11  12
ATOM     12  C   UNL d   1      11.996   8.401  -2.815  0.00  0.00     0.113 C 
BRANCH  12  13
ATOM     13  C   UNL d   1      11.780   6.886  -2.959  0.00  0.00     0.398 C 
ATOM     14  F   UNL d   1      12.947   6.280  -2.797  0.00  0.00    -0.170 F 
ATOM     15  F   UNL d   1      10.953   6.469  -2.011  0.00  0.00    -0.170 F 
ATOM     16  F   UNL d   1      11.268   6.543  -4.139  0.00  0.00    -0.170 F 
ENDBRANCH  12  13
ENDBRANCH  11  12
ENDBRANCH   9  11
ENDBRANCH   5   8
ENDBRANCH   1   2
BRANCH   1  17
ATOM     17  C   UNL d   1       9.232   4.974 -11.195  0.00  0.00     0.250 C 
BRANCH  17  18
ATOM     18  N   UNL d   1       8.440   4.679 -12.383  0.00  0.00     0.141 N 
ATOM     19  C   UNL d   1       9.133   3.604 -13.089  0.00  0.00     0.274 C 
ATOM     20  C   UNL d   1       8.384   3.197 -14.346  0.00  0.00     0.138 C 
ATOM     21  N   UNL d   1       6.999   2.873 -14.037  0.00  0.00    -0.330 N 
ATOM     22  C   UNL d   1       6.265   3.880 -13.263  0.00  0.00     0.138 C 
ATOM     23  C   UNL d   1       7.068   4.276 -12.006  0.00  0.00     0.274 C 
BRANCH  21  24
ATOM     24  C   UNL d   1       6.411   1.676 -14.473  0.00  0.00     0.138 A 
ATOM     25  C   UNL d   1       6.714   1.079 -15.726  0.00  0.00     0.036 A 
ATOM     26  C   UNL d   1       6.053  -0.070 -16.134  0.00  0.00     0.095 A 
ATOM     27  C   UNL d   1       7.606   1.531 -16.843  0.00  0.00     0.064 C 
ATOM     28  C   UNL d   1       5.093  -0.661 -15.300  0.00  0.00     0.045 A 
ATOM     29  O   UNL d   1       6.415  -0.485 -17.384  0.00  0.00    -0.331 OA
ATOM     30  C   UNL d   1       4.848  -0.023 -14.066  0.00  0.00     0.103 A 
ATOM     31  N   UNL d   1       5.486   1.103 -13.659  0.00  0.00    -0.228 NA
ATOM     32  C   UNL d   1       7.496   0.350 -17.825  0.00  0.00     0.154 C 
ENDBRANCH  21  24
ENDBRANCH  17  18
ENDBRANCH   1  17
TORSDOF 8
