REMARK  3 active torsions:
REMARK  status: ('A' for Active; 'I' for Inactive)
REMARK    1  A    between atoms: C_2  and  C_3 
REMARK    2  A    between atoms: C_3  and  N_4 
REMARK    3  A    between atoms: C_12  and  C_13 
ROOT
ATOM      1  N   UNL d   1       9.518   7.592 -10.284  0.00  0.00     0.142 N 
ATOM      2  C   UNL d   1       9.132   7.916 -11.656  0.00  0.00     0.254 C 
ATOM      3  C   UNL d   1       8.201   6.839 -12.241  0.00  0.00     0.071 C 
ATOM      4  C   UNL d   1       8.815   5.437 -12.161  0.00  0.00     0.157 A 
ATOM      5  C   UNL d   1       9.300   5.165 -10.729  0.00  0.00     0.071 C 
ATOM      6  C   UNL d   1      10.200   6.303 -10.217  0.00  0.00     0.254 C 
ATOM      7  O   UNL d   1       9.900   5.258 -13.088  0.00  0.00    -0.326 OA
ATOM      8  C   UNL d   1       9.645   4.184 -13.859  0.00  0.00     0.119 A 
ATOM      9  C   UNL d   1       8.458   3.607 -13.679  0.00  0.00     0.061 A 
ATOM     10  C   UNL d   1       7.817   4.390 -12.628  0.00  0.00     0.200 A 
ATOM     11  O   UNL d   1       6.683   4.279 -12.161  0.00  0.00    -0.289 OA
ENDROOT
BRANCH   9  12
ATOM     12  C   UNL d   1       7.879   2.460 -14.437  0.00  0.00     0.005 A 
ATOM     13  C   UNL d   1       6.661   1.856 -14.048  0.00  0.00     0.000 A 
ATOM     14  C   UNL d   1       6.124   0.782 -14.786  0.00  0.00     0.000 A 
ATOM     15  C   UNL d   1       6.793   0.319 -15.932  0.00  0.00     0.000 A 
ATOM     16  C   UNL d   1       7.999   0.914 -16.327  0.00  0.00     0.000 A 
ATOM     17  C   UNL d   1       8.545   1.982 -15.588  0.00  0.00     0.000 A 
ENDBRANCH   9  12
BRANCH   1  18
ATOM     18  C   UNL d   1      10.339   8.671  -9.739  0.00  0.00     0.277 C 
BRANCH  18  19
ATOM     19  C   UNL d   1      10.590   8.522  -8.249  0.00  0.00     0.009 C 
ATOM     20  C   UNL d   1      11.789   8.661  -7.668  0.00  0.00    -0.003 C 
ENDBRANCH  18  19
ENDBRANCH   1  18
TORSDOF 3
