REMARK  6 active torsions:
REMARK  status: ('A' for Active; 'I' for Inactive)
REMARK       I    between atoms: C_2  and  N_3 
REMARK    1  A    between atoms: C_2  and  C_27 
REMARK    2  A    between atoms: N_3  and  C_4 
REMARK    3  A    between atoms: C_4  and  C_5 
REMARK    4  A    between atoms: C_5  and  C_6 
REMARK    5  A    between atoms: C_6  and  C_7 
REMARK    6  A    between atoms: C_7  and  N_8 
ROOT
ATOM      1  N   UNL d   1       9.652   4.181 -14.087  0.00  0.00     0.141 N 
ATOM      2  C   UNL d   1      10.754   5.067 -14.462  0.00  0.00     0.274 C 
ATOM      3  C   UNL d   1      10.727   5.313 -15.971  0.00  0.00     0.137 C 
ATOM      4  N   UNL d   1      10.883   4.056 -16.685  0.00  0.00    -0.343 N 
ATOM      5  C   UNL d   1      11.305   4.158 -18.024  0.00  0.00     0.053 A 
ATOM      6  C   UNL d   1      11.020   5.295 -18.819  0.00  0.00     0.017 A 
ATOM      7  C   UNL d   1      11.492   5.378 -20.142  0.00  0.00     0.002 A 
ATOM      8  C   UNL d   1      12.257   4.328 -20.683  0.00  0.00    -0.000 A 
ATOM      9  C   UNL d   1      12.547   3.195 -19.901  0.00  0.00    -0.003 A 
ATOM     10  C   UNL d   1      12.075   3.111 -18.574  0.00  0.00    -0.002 A 
ATOM     11  C   UNL d   1      12.355   1.880 -17.738  0.00  0.00     0.054 C 
ATOM     12  C   UNL d   1      11.076   1.088 -17.574  0.00  0.00    -0.020 A 
ATOM     13  C   UNL d   1      11.020  -0.218 -18.106  0.00  0.00    -0.004 A 
ATOM     14  C   UNL d   1       9.833  -0.968 -18.035  0.00  0.00    -0.000 A 
ATOM     15  C   UNL d   1       8.690  -0.408 -17.441  0.00  0.00    -0.000 A 
ATOM     16  C   UNL d   1       8.740   0.890 -16.904  0.00  0.00    -0.003 A 
ATOM     17  C   UNL d   1       9.928   1.654 -16.957  0.00  0.00    -0.004 A 
ATOM     18  C   UNL d   1       9.886   3.044 -16.300  0.00  0.00     0.137 C 
ATOM     19  C   UNL d   1       9.884   2.890 -14.752  0.00  0.00     0.277 C 
ENDROOT
BRANCH   1  20
ATOM     20  C   UNL d   1       9.646   4.004 -12.637  0.00  0.00     0.251 C 
BRANCH  20  21
ATOM     21  C   UNL d   1       9.022   5.206 -11.894  0.00  0.00     0.037 C 
BRANCH  21  22
ATOM     22  C   UNL d   1       9.535   5.323 -10.443  0.00  0.00     0.029 C 
BRANCH  22  23
ATOM     23  C   UNL d   1       8.775   6.368  -9.643  0.00  0.00     0.129 C 
BRANCH  23  24
ATOM     24  N   UNL d   1       9.445   6.658  -8.376  0.00  0.00    -0.234 NA
ATOM     25  C   UNL d   1      10.084   7.798  -8.064  0.00  0.00     0.281 C 
ATOM     26  O   UNL d   1      10.222   8.735  -8.852  0.00  0.00    -0.265 OA
BRANCH  25  27
ATOM     27  C   UNL d   1      10.611   7.884  -6.684  0.00  0.00     0.087 A 
ATOM     28  S   UNL d   1      10.890   9.484  -6.037  0.00  0.00    -0.082 SA
ATOM     29  C   UNL d   1      11.457   8.811  -4.515  0.00  0.00     0.030 A 
ATOM     30  C   UNL d   1      11.467   7.382  -4.574  0.00  0.00     0.007 A 
ATOM     31  C   UNL d   1      11.856   9.504  -3.355  0.00  0.00     0.006 A 
ATOM     32  C   UNL d   1      10.996   6.873  -5.839  0.00  0.00     0.012 A 
ATOM     33  C   UNL d   1      11.927   6.702  -3.424  0.00  0.00     0.001 A 
ATOM     34  C   UNL d   1      12.344   7.387  -2.269  0.00  0.00     0.000 A 
ATOM     35  C   UNL d   1      12.315   8.788  -2.237  0.00  0.00     0.001 A 
ENDBRANCH  25  27
ENDBRANCH  23  24
ENDBRANCH  22  23
ENDBRANCH  21  22
ENDBRANCH  20  21
ENDBRANCH   1  20
TORSDOF 6
