REMARK  6 active torsions:
REMARK  status: ('A' for Active; 'I' for Inactive)
REMARK    1  A    between atoms: O_2  and  C_3 
REMARK    2  A    between atoms: C_6  and  O_7 
REMARK    3  A    between atoms: O_7  and  C_8 
REMARK    4  A    between atoms: C_8  and  C_9 
REMARK    5  A    between atoms: C_9  and  N_10 
REMARK       I    between atoms: N_13  and  C_14 
REMARK    6  A    between atoms: C_14  and  C_16 
ROOT
ATOM      1  N   UNL d   1      10.213   6.617  -9.225  0.00  0.00     0.144 N 
ATOM      2  C   UNL d   1      10.014   8.067  -9.131  0.00  0.00     0.274 C 
ATOM      3  C   UNL d   1      11.110   8.719  -8.267  0.00  0.00     0.140 C 
ATOM      4  N   UNL d   1      11.152   8.103  -6.918  0.00  0.00    -0.316 N 
ATOM      5  C   UNL d   1      11.064   8.838  -5.793  0.00  0.00     0.233 C 
ATOM      6  O   UNL d   1      10.435   9.889  -5.743  0.00  0.00    -0.272 OA
ATOM      7  C   UNL d   1      11.211   6.649  -6.980  0.00  0.00     0.140 C 
ATOM      8  C   UNL d   1      10.120   6.093  -7.869  0.00  0.00     0.274 C 
ENDROOT
BRANCH   1   9
ATOM      9  C   UNL d   1       9.148   5.971  -9.996  0.00  0.00     0.283 C 
BRANCH   9  10
ATOM     10  C   UNL d   1       9.319   6.308 -11.483  0.00  0.00     0.184 C 
BRANCH  10  11
ATOM     11  O   UNL d   1       8.229   5.781 -12.207  0.00  0.00    -0.329 OA
BRANCH  11  12
ATOM     12  C   UNL d   1       8.362   4.609 -12.910  0.00  0.00     0.094 A 
ATOM     13  C   UNL d   1       7.162   4.034 -13.354  0.00  0.00     0.026 A 
ATOM     14  C   UNL d   1       7.175   2.854 -14.106  0.00  0.00     0.026 A 
ATOM     15  C   UNL d   1       8.388   2.206 -14.440  0.00  0.00     0.094 A 
ATOM     16  C   UNL d   1       9.601   2.792 -14.007  0.00  0.00     0.026 A 
ATOM     17  C   UNL d   1       9.591   3.975 -13.241  0.00  0.00     0.026 A 
BRANCH  15  18
ATOM     18  O   UNL d   1       8.430   1.039 -15.171  0.00  0.00    -0.328 OA
ATOM     19  C   UNL d   1       7.180   0.460 -15.519  0.00  0.00     0.181 C 
ENDBRANCH  15  18
ENDBRANCH  11  12
ENDBRANCH  10  11
ENDBRANCH   9  10
ENDBRANCH   1   9
BRANCH   5  20
ATOM     20  C   UNL d   1      11.923   8.457  -4.541  0.00  0.00     0.079 C 
ATOM     21  C   UNL d   1      11.659   9.416  -3.356  0.00  0.00     0.009 C 
ATOM     22  C   UNL d   1      12.466   9.052  -2.103  0.00  0.00     0.001 C 
ATOM     23  C   UNL d   1      12.252   7.603  -1.684  0.00  0.00     0.000 C 
ATOM     24  C   UNL d   1      12.556   6.681  -2.848  0.00  0.00     0.001 C 
ATOM     25  C   UNL d   1      11.758   7.008  -4.073  0.00  0.00     0.009 C 
ENDBRANCH   5  20
TORSDOF 6
