REMARK  7 active torsions:
REMARK  status: ('A' for Active; 'I' for Inactive)
REMARK    1  A    between atoms: C_2  and  C_3 
REMARK    2  A    between atoms: C_3  and  C_6 
REMARK    3  A    between atoms: C_6  and  O_8 
REMARK    4  A    between atoms: O_8  and  C_9 
REMARK    5  A    between atoms: C_19  and  C_20 
REMARK    6  A    between atoms: C_20  and  C_21 
REMARK    7  A    between atoms: C_21  and  C_22 
ROOT
ATOM      1  C   UNL d   1       9.981   3.043 -13.891  0.00  0.00     0.129 C 
ATOM      2  C   UNL d   1      10.841   3.912 -12.994  0.00  0.00     0.035 C 
ATOM      3  C   UNL d   1      10.520   5.376 -13.097  0.00  0.00     0.024 C 
ATOM      4  C   UNL d   1      11.111   5.956 -14.395  0.00  0.00     0.005 C 
ATOM      5  C   UNL d   1       9.055   5.686 -13.093  0.00  0.00    -0.031 C 
ATOM      6  C   UNL d   1       8.151   4.751 -13.284  0.00  0.00    -0.025 C 
ATOM      7  C   UNL d   1       6.761   5.117 -13.206  0.00  0.00    -0.009 C 
ATOM      8  C   UNL d   1       5.803   4.269 -13.548  0.00  0.00    -0.027 C 
ATOM      9  C   UNL d   1       6.079   2.821 -13.939  0.00  0.00     0.022 C 
ATOM     10  C   UNL d   1       5.622   1.970 -12.754  0.00  0.00     0.005 C 
ATOM     11  C   UNL d   1       7.528   2.596 -14.428  0.00  0.00     0.011 C 
ATOM     12  C   UNL d   1       8.534   3.283 -13.484  0.00  0.00     0.050 C 
ENDROOT
BRANCH  11  13
ATOM     13  C   UNL d   1       7.809   1.108 -14.785  0.00  0.00     0.003 C 
BRANCH  13  14
ATOM     14  C   UNL d   1       7.088   0.637 -16.072  0.00  0.00     0.030 C 
BRANCH  14  15
ATOM     15  C   UNL d   1       6.097  -0.499 -15.837  0.00  0.00     0.127 C 
ATOM     16  O   UNL d   1       5.121  -0.053 -14.908  0.00  0.00    -0.304 OA
ATOM     17  C   UNL d   1       3.962  -0.692 -14.685  0.00  0.00     0.274 C 
ATOM     18  C   UNL d   1       3.398  -1.519 -15.851  0.00  0.00     0.129 C 
ATOM     19  O   UNL d   1       3.318  -0.565 -13.643  0.00  0.00    -0.264 OA
ATOM     20  C   UNL d   1       4.448  -2.049 -16.835  0.00  0.00     0.165 C 
ATOM     21  C   UNL d   1       5.460  -0.968 -17.150  0.00  0.00     0.064 C 
ATOM     22  O   UNL d   1       5.161  -3.163 -16.322  0.00  0.00    -0.223 OA
ENDBRANCH  14  15
ENDBRANCH  13  14
ENDBRANCH  11  13
BRANCH   1  23
ATOM     23  O   UNL d   1      10.217   3.370 -15.253  0.00  0.00    -0.304 OA
BRANCH  23  24
ATOM     24  C   UNL d   1      10.850   2.571 -16.087  0.00  0.00     0.271 C 
ATOM     25  O   UNL d   1      11.176   1.409 -15.831  0.00  0.00    -0.264 OA
BRANCH  24  26
ATOM     26  C   UNL d   1      11.112   3.273 -17.438  0.00  0.00     0.078 C 
ATOM     27  C   UNL d   1      11.921   4.577 -17.247  0.00  0.00     0.010 C 
ATOM     28  C   UNL d   1       9.748   3.620 -18.070  0.00  0.00     0.010 C 
BRANCH  26  29
ATOM     29  C   UNL d   1      11.908   2.306 -18.336  0.00  0.00     0.009 C 
ATOM     30  C   UNL d   1      12.261   2.858 -19.727  0.00  0.00     0.001 C 
ENDBRANCH  26  29
ENDBRANCH  24  26
ENDBRANCH  23  24
ENDBRANCH   1  23
TORSDOF 7
