REMARK  1 active torsions:
REMARK  status: ('A' for Active; 'I' for Inactive)
REMARK    1  A    between atoms: C_2  and  C_3 
ROOT
ATOM      1  C   UNL d   1      10.974   2.724 -15.647  0.00  0.00    -0.000 A 
ATOM      2  C   UNL d   1      11.354   1.644 -16.485  0.00  0.00    -0.000 A 
ATOM      3  C   UNL d   1      10.559   0.497 -16.623  0.00  0.00    -0.000 A 
ATOM      4  C   UNL d   1       9.341   0.420 -15.941  0.00  0.00    -0.004 A 
ATOM      5  C   UNL d   1       8.951   1.467 -15.090  0.00  0.00    -0.020 A 
ATOM      6  C   UNL d   1       9.776   2.602 -14.864  0.00  0.00    -0.004 A 
ATOM      7  C   UNL d   1       9.293   3.603 -13.861  0.00  0.00    -0.003 A 
ATOM      8  C   UNL d   1      10.148   4.414 -13.074  0.00  0.00    -0.000 A 
ATOM      9  C   UNL d   1       9.670   5.399 -12.181  0.00  0.00    -0.000 A 
ATOM     10  C   UNL d   1       8.300   5.602 -12.001  0.00  0.00    -0.004 A 
ATOM     11  C   UNL d   1       7.399   4.778 -12.684  0.00  0.00    -0.022 A 
ATOM     12  C   UNL d   1       7.921   3.770 -13.552  0.00  0.00     0.005 A 
ATOM     13  C   UNL d   1       6.974   2.771 -14.223  0.00  0.00     0.246 C 
ATOM     14  C   UNL d   1       7.589   1.368 -14.449  0.00  0.00     0.064 C 
ATOM     15  N   UNL d   1       5.647   2.684 -13.640  0.00  0.00     0.142 N 
ATOM     16  C   UNL d   1       5.565   1.963 -12.380  0.00  0.00     0.286 C 
ATOM     17  C   UNL d   1       5.086   4.018 -13.507  0.00  0.00     0.255 C 
ATOM     18  C   UNL d   1       5.891   4.845 -12.505  0.00  0.00     0.061 C 
ENDROOT
BRANCH   1  19
ATOM     19  C   UNL d   1      11.822   3.946 -15.657  0.00  0.00    -0.000 C 
ATOM     20  C   UNL d   1      13.059   4.077 -16.169  0.00  0.00    -0.000 C 
ENDBRANCH   1  19
TORSDOF 1
