REMARK  5 active torsions:
REMARK  status: ('A' for Active; 'I' for Inactive)
REMARK    1  A    between atoms: O_2  and  C_3 
REMARK    2  A    between atoms: C_8  and  O_9 
REMARK    3  A    between atoms: C_14  and  C_15 
REMARK    4  A    between atoms: C_15  and  N_16 
REMARK    5  A    between atoms: N_19  and  C_20 
ROOT
ATOM      1  C   UNL d   1       8.976   2.039 -15.114  0.00  0.00     0.116 A 
ATOM      2  C   UNL d   1       9.639   3.103 -14.456  0.00  0.00     0.022 A 
ATOM      3  C   UNL d   1       8.938   3.978 -13.614  0.00  0.00    -0.017 A 
ATOM      4  C   UNL d   1       7.557   3.807 -13.396  0.00  0.00     0.033 A 
ATOM      5  C   UNL d   1       6.891   2.749 -14.043  0.00  0.00     0.029 A 
ATOM      6  C   UNL d   1       7.590   1.850 -14.883  0.00  0.00     0.116 A 
ATOM      7  C   UNL d   1       6.800   4.708 -12.482  0.00  0.00     0.173 C 
ATOM      8  O   UNL d   1       5.608   4.559 -12.217  0.00  0.00    -0.291 OA
ATOM      9  C   UNL d   1       7.576   5.879 -11.865  0.00  0.00     0.071 C 
ATOM     10  C   UNL d   1       9.062   5.534 -11.634  0.00  0.00     0.045 C 
ATOM     11  C   UNL d   1       9.714   5.089 -12.944  0.00  0.00     0.029 C 
ENDROOT
BRANCH  10  12
ATOM     12  C   UNL d   1       9.870   6.702 -11.030  0.00  0.00     0.251 C 
BRANCH  12  13
ATOM     13  N   UNL d   1       9.464   7.044  -9.677  0.00  0.00     0.141 N 
ATOM     14  C   UNL d   1       9.980   8.371  -9.313  0.00  0.00     0.274 C 
ATOM     15  C   UNL d   1       9.509   8.761  -7.897  0.00  0.00     0.138 C 
ATOM     16  N   UNL d   1       9.907   7.733  -6.941  0.00  0.00    -0.330 N 
ATOM     17  C   UNL d   1       9.469   6.393  -7.309  0.00  0.00     0.138 C 
ATOM     18  C   UNL d   1       9.960   6.054  -8.719  0.00  0.00     0.274 C 
BRANCH  16  19
ATOM     19  C   UNL d   1      10.660   8.024  -5.777  0.00  0.00     0.140 A 
ATOM     20  N   UNL d   1      10.715   9.320  -5.383  0.00  0.00    -0.227 NA
ATOM     21  C   UNL d   1      11.392   9.637  -4.260  0.00  0.00     0.101 A 
ATOM     22  C   UNL d   1      12.062   8.694  -3.459  0.00  0.00     0.021 A 
ATOM     23  C   UNL d   1      12.011   7.348  -3.861  0.00  0.00     0.005 A 
ATOM     24  C   UNL d   1      11.312   7.011  -5.034  0.00  0.00     0.037 A 
ENDBRANCH  16  19
ENDBRANCH  12  13
ENDBRANCH  10  12
BRANCH   1  25
ATOM     25  O   UNL d   1       9.627   1.162 -15.959  0.00  0.00    -0.326 OA
ATOM     26  C   UNL d   1      11.029   1.335 -16.154  0.00  0.00     0.181 C 
ENDBRANCH   1  25
BRANCH   6  27
ATOM     27  O   UNL d   1       6.965   0.804 -15.526  0.00  0.00    -0.326 OA
ATOM     28  C   UNL d   1       5.869   0.180 -14.869  0.00  0.00     0.181 C 
ENDBRANCH   6  27
TORSDOF 5
