REMARK  1 active torsions:
REMARK  status: ('A' for Active; 'I' for Inactive)
REMARK    1  A    between atoms: C_2  and  N_3 
ROOT
ATOM      1  N   UNL d   1      11.327   8.289  -5.377  0.00  0.00     0.138 N 
ATOM      2  C   UNL d   1      11.815   8.770  -6.679  0.00  0.00     0.255 C 
ATOM      3  C   UNL d   1      10.693   9.204  -7.635  0.00  0.00     0.061 C 
ATOM      4  C   UNL d   1      10.071   8.049  -8.396  0.00  0.00    -0.022 A 
ATOM      5  C   UNL d   1      10.109   8.044  -9.808  0.00  0.00     0.015 A 
ATOM      6  C   UNL d   1       9.483   7.016 -10.553  0.00  0.00     0.089 A 
ATOM      7  N   UNL d   1       9.414   6.899 -11.941  0.00  0.00    -0.219 NA
ATOM      8  C   UNL d   1       8.782   5.773 -12.264  0.00  0.00     0.215 A 
ATOM      9  N   UNL d   1       8.641   5.334 -13.565  0.00  0.00    -0.120 N 
ATOM     10  S   UNL d   1       8.176   4.794 -10.947  0.00  0.00    -0.045 SA
ATOM     11  C   UNL d   1       8.859   5.964  -9.828  0.00  0.00     0.050 A 
ATOM     12  C   UNL d   1       8.815   5.963  -8.425  0.00  0.00     0.004 A 
ATOM     13  C   UNL d   1       9.431   7.003  -7.704  0.00  0.00    -0.024 A 
ATOM     14  C   UNL d   1       9.321   7.018  -6.193  0.00  0.00     0.061 C 
ATOM     15  C   UNL d   1      10.678   6.977  -5.474  0.00  0.00     0.255 C 
ENDROOT
BRANCH   1  16
ATOM     16  C   UNL d   1      12.426   8.194  -4.411  0.00  0.00     0.250 C 
ATOM     17  C   UNL d   1      11.971   8.499  -2.981  0.00  0.00     0.037 C 
ENDBRANCH   1  16
TORSDOF 1
