REMARK  4 active torsions:
REMARK  status: ('A' for Active; 'I' for Inactive)
REMARK    1  A    between atoms: C_2  and  N_3 
REMARK    2  A    between atoms: N_3  and  C_4 
REMARK       I    between atoms: N_3  and  C_6 
REMARK    3  A    between atoms: C_6  and  C_8 
REMARK       I    between atoms: N_22  and  C_23 
REMARK       I    between atoms: C_23  and  N_25 
REMARK    4  A    between atoms: N_25  and  C_26 
ROOT
ATOM      1  C   UNL d   1      10.277   0.005 -17.929  0.00  0.00     0.123 C 
ATOM      2  C   UNL d   1       8.904  -0.476 -18.336  0.00  0.00    -0.018 C 
ATOM      3  C   UNL d   1       7.795  -0.218 -17.619  0.00  0.00    -0.005 C 
ATOM      4  C   UNL d   1       6.477  -0.752 -17.978  0.00  0.00    -0.001 A 
ATOM      5  C   UNL d   1       6.080  -1.225 -19.252  0.00  0.00    -0.000 A 
ATOM      6  C   UNL d   1       4.775  -1.711 -19.458  0.00  0.00     0.002 A 
ATOM      7  C   UNL d   1       3.865  -1.736 -18.385  0.00  0.00     0.019 A 
ATOM      8  C   UNL d   1       4.251  -1.294 -17.132  0.00  0.00     0.081 A 
ATOM      9  N   UNL d   1       3.580  -1.212 -15.944  0.00  0.00    -0.244 NA
ATOM     10  C   UNL d   1       4.403  -0.702 -14.953  0.00  0.00     0.095 A 
ATOM     11  C   UNL d   1       5.604  -0.477 -15.571  0.00  0.00     0.001 A 
ATOM     12  C   UNL d   1       5.533  -0.823 -16.939  0.00  0.00     0.015 A 
ATOM     13  C   UNL d   1       6.979   0.020 -15.184  0.00  0.00     0.055 C 
ATOM     14  C   UNL d   1       7.814   0.654 -16.350  0.00  0.00     0.112 C 
ATOM     15  N   UNL d   1       9.176   1.076 -15.921  0.00  0.00    -0.298 N 
ATOM     16  C   UNL d   1       9.427   2.149 -15.121  0.00  0.00     0.346 C 
ATOM     17  O   UNL d   1      10.572   2.477 -14.804  0.00  0.00    -0.245 OA
ATOM     18  N   UNL d   1       8.323   2.787 -14.678  0.00  0.00    -0.193 NA
ATOM     19  C   UNL d   1      10.290   0.229 -16.399  0.00  0.00     0.120 C 
ENDROOT
BRANCH  18  20
ATOM     20  C   UNL d   1       8.186   3.840 -13.730  0.00  0.00     0.086 A 
ATOM     21  C   UNL d   1       9.278   4.583 -13.216  0.00  0.00     0.019 A 
ATOM     22  C   UNL d   1       9.054   5.633 -12.315  0.00  0.00     0.002 A 
ATOM     23  C   UNL d   1       7.748   5.965 -11.924  0.00  0.00     0.000 A 
ATOM     24  C   UNL d   1       6.656   5.223 -12.412  0.00  0.00     0.002 A 
ATOM     25  C   UNL d   1       6.873   4.164 -13.312  0.00  0.00     0.019 A 
ENDBRANCH  18  20
BRANCH   1  26
ATOM     26  C   UNL d   1      10.751   1.267 -18.687  0.00  0.00     0.239 C 
ATOM     27  N   UNL d   1      12.035   1.375 -19.118  0.00  0.00    -0.320 N 
ATOM     28  O   UNL d   1       9.921   2.158 -18.893  0.00  0.00    -0.272 OA
BRANCH  27  29
ATOM     29  C   UNL d   1      12.498   2.580 -19.826  0.00  0.00     0.104 C 
ATOM     30  C   UNL d   1      12.710   3.773 -18.880  0.00  0.00     0.026 C 
ENDBRANCH  27  29
BRANCH  27  31
ATOM     31  C   UNL d   1      13.065   0.338 -18.971  0.00  0.00     0.104 C 
ATOM     32  C   UNL d   1      13.012  -0.671 -20.128  0.00  0.00     0.026 C 
ENDBRANCH  27  31
ENDBRANCH   1  26
TORSDOF 4
