REMARK  7 active torsions:
REMARK  status: ('A' for Active; 'I' for Inactive)
REMARK    1  A    between atoms: S_2  and  N_4 
REMARK    2  A    between atoms: S_2  and  C_24 
REMARK    3  A    between atoms: N_4  and  C_5 
REMARK    4  A    between atoms: C_5  and  C_6 
REMARK    5  A    between atoms: C_6  and  C_7 
REMARK    6  A    between atoms: C_7  and  N_8 
REMARK    7  A    between atoms: C_11  and  C_12 
ROOT
ATOM      1  N   UNL d   1       9.667   5.664  -9.594  0.00  0.00     0.142 N 
ATOM      2  C   UNL d   1       9.960   6.991 -10.141  0.00  0.00     0.276 C 
ATOM      3  C   UNL d   1      10.557   7.921  -9.120  0.00  0.00     0.005 C 
ATOM      4  C   UNL d   1      10.532   7.664  -7.803  0.00  0.00    -0.021 C 
ATOM      5  C   UNL d   1       9.884   6.406  -7.296  0.00  0.00     0.061 C 
ATOM      6  C   UNL d   1       8.955   5.779  -8.327  0.00  0.00     0.255 C 
ENDROOT
BRANCH   1   7
ATOM      7  C   UNL d   1       8.871   4.918 -10.555  0.00  0.00     0.253 C 
BRANCH   7   8
ATOM      8  C   UNL d   1       9.763   4.263 -11.626  0.00  0.00     0.062 C 
BRANCH   8   9
ATOM      9  C   UNL d   1       8.953   3.767 -12.793  0.00  0.00     0.141 C 
BRANCH   9  10
ATOM     10  N   UNL d   1       9.663   2.717 -13.544  0.00  0.00    -0.185 NA
BRANCH  10  11
ATOM     11  S   UNL d   1       9.166   2.282 -15.136  0.00  0.00     0.281 S 
ATOM     12  O   UNL d   1       9.001   3.555 -15.843  0.00  0.00    -0.199 OA
ATOM     13  O   UNL d   1      10.127   1.291 -15.646  0.00  0.00    -0.199 OA
BRANCH  11  14
ATOM     14  C   UNL d   1       7.555   1.455 -14.910  0.00  0.00     0.105 C 
ATOM     15  C   UNL d   1       6.585   1.968 -14.028  0.00  0.00     0.014 C 
ATOM     16  C   UNL d   1       5.453   1.194 -13.701  0.00  0.00     0.012 C 
ATOM     17  C   UNL d   1       5.165   0.004 -14.397  0.00  0.00     0.058 C 
ATOM     18  C   UNL d   1       6.085  -0.466 -15.361  0.00  0.00     0.012 C 
ATOM     19 CL   UNL d   1       3.644  -0.797 -14.150  0.00  0.00    -0.082 Cl
ATOM     20  C   UNL d   1       7.302   0.233 -15.589  0.00  0.00     0.014 C 
ENDBRANCH  11  14
ENDBRANCH  10  11
ENDBRANCH   9  10
ENDBRANCH   8   9
ENDBRANCH   7   8
ENDBRANCH   1   7
BRANCH   4  21
ATOM     21  C   UNL d   1      11.085   8.593  -6.835  0.00  0.00     0.017 A 
ATOM     22  C   UNL d   1      11.445   8.313  -5.487  0.00  0.00     0.020 A 
ATOM     23  C   UNL d   1      11.988   9.519  -4.973  0.00  0.00     0.082 A 
ATOM     24  C   UNL d   1      11.417   7.218  -4.585  0.00  0.00     0.013 A 
ATOM     25  N   UNL d   1      11.968  10.436  -5.995  0.00  0.00    -0.244 NA
ATOM     26  C   UNL d   1      12.432   9.606  -3.649  0.00  0.00     0.020 A 
ATOM     27  C   UNL d   1      11.441   9.870  -7.124  0.00  0.00     0.099 A 
ATOM     28  C   UNL d   1      12.342   8.569  -2.773  0.00  0.00     0.013 A 
ATOM     29  C   UNL d   1      11.876   7.391  -3.263  0.00  0.00     0.058 A 
ATOM     30 CL   UNL d   1      11.909   6.268  -2.030  0.00  0.00    -0.082 Cl
ENDBRANCH   4  21
TORSDOF 7
