REMARK  0 active torsions:
REMARK  status: ('A' for Active; 'I' for Inactive)
ROOT
ATOM      1  C   UNL d   1      10.460   8.295  -8.795  0.00  0.00     0.106 C 
ATOM      2  S   UNL d   1       9.459   8.388  -7.238  0.00  0.00     0.044 S 
ATOM      3  C   UNL d   1       8.820   6.649  -7.292  0.00  0.00     0.106 C 
ATOM      4  O   UNL d   1      10.455   8.456  -6.077  0.00  0.00    -0.256 OA
ENDROOT
TORSDOF 0
