REMARK  7 active torsions:
REMARK  status: ('A' for Active; 'I' for Inactive)
REMARK       I    between atoms: C_2  and  N_3 
REMARK    1  A    between atoms: C_2  and  C_23 
REMARK    2  A    between atoms: N_3  and  C_4 
REMARK    3  A    between atoms: C_4  and  C_5 
REMARK    4  A    between atoms: C_5  and  C_6 
REMARK    5  A    between atoms: C_6  and  C_8 
REMARK    6  A    between atoms: C_8  and  N_9 
REMARK    7  A    between atoms: N_12  and  C_13 
ROOT
ATOM      1  C   UNL d   1       7.502   5.181 -11.660  0.00  0.00     0.061 C 
ENDROOT
BRANCH   1   2
ATOM      2  C   UNL d   1       9.030   5.019 -11.607  0.00  0.00     0.132 C 
BRANCH   2   3
ATOM      3  N   UNL d   1       9.604   5.896 -10.607  0.00  0.00    -0.234 NA
ATOM      4  C   UNL d   1       9.588   5.680  -9.282  0.00  0.00     0.275 C 
ATOM      5  O   UNL d   1       9.180   4.637  -8.772  0.00  0.00    -0.266 OA
BRANCH   4   6
ATOM      6  C   UNL d   1      10.181   6.796  -8.466  0.00  0.00     0.058 A 
ATOM      7  C   UNL d   1      10.513   6.579  -7.105  0.00  0.00     0.004 A 
ATOM      8  C   UNL d   1      11.028   7.644  -6.341  0.00  0.00    -0.004 A 
ATOM      9  C   UNL d   1      11.219   8.903  -6.911  0.00  0.00    -0.018 A 
ATOM     10  C   UNL d   1      11.444   7.715  -4.945  0.00  0.00    -0.004 A 
ATOM     11  C   UNL d   1      10.924   9.128  -8.263  0.00  0.00    -0.004 A 
ATOM     12  C   UNL d   1      11.772   9.901  -5.909  0.00  0.00     0.053 A 
ATOM     13  C   UNL d   1      10.386   8.083  -9.028  0.00  0.00     0.004 A 
ATOM     14  C   UNL d   1      11.871   9.017  -4.679  0.00  0.00    -0.018 A 
ATOM     15  C   UNL d   1      12.331   9.382  -3.405  0.00  0.00    -0.004 A 
ATOM     16  C   UNL d   1      12.374   8.400  -2.389  0.00  0.00    -0.000 A 
ATOM     17  C   UNL d   1      11.934   7.081  -2.652  0.00  0.00    -0.000 A 
ATOM     18  C   UNL d   1      11.463   6.736  -3.939  0.00  0.00    -0.000 A 
ENDBRANCH   4   6
ENDBRANCH   2   3
ENDBRANCH   1   2
BRANCH   1  19
ATOM     19  C   UNL d   1       6.812   4.211 -12.626  0.00  0.00     0.188 C 
ATOM     20  O   UNL d   1       5.463   4.598 -12.704  0.00  0.00    -0.221 OA
BRANCH  19  21
ATOM     21  C   UNL d   1       7.401   4.256 -14.038  0.00  0.00     0.283 C 
BRANCH  21  22
ATOM     22  N   UNL d   1       8.512   3.336 -14.272  0.00  0.00     0.144 N 
ATOM     23  C   UNL d   1       9.403   3.822 -15.334  0.00  0.00     0.274 C 
ATOM     24  C   UNL d   1      10.594   2.878 -15.578  0.00  0.00     0.137 C 
ATOM     25  N   UNL d   1      10.085   1.533 -15.850  0.00  0.00    -0.344 N 
ATOM     26  C   UNL d   1       9.154   0.996 -14.868  0.00  0.00     0.137 C 
ATOM     27  C   UNL d   1       8.010   2.006 -14.640  0.00  0.00     0.274 C 
BRANCH  25  28
ATOM     28  C   UNL d   1      10.437   0.841 -17.027  0.00  0.00     0.068 A 
ATOM     29  C   UNL d   1       9.485   0.224 -17.885  0.00  0.00     0.084 A 
ATOM     30  C   UNL d   1       9.931  -0.496 -19.023  0.00  0.00     0.070 A 
ATOM     31 CL   UNL d   1       7.772   0.375 -17.663  0.00  0.00    -0.080 Cl
ATOM     32  C   UNL d   1      11.300  -0.580 -19.311  0.00  0.00     0.012 A 
ATOM     33 CL   UNL d   1       8.795  -1.236 -20.087  0.00  0.00    -0.081 Cl
ATOM     34  C   UNL d   1      12.240   0.049 -18.492  0.00  0.00     0.002 A 
ATOM     35  C   UNL d   1      11.805   0.772 -17.355  0.00  0.00     0.018 A 
ENDBRANCH  25  28
ENDBRANCH  21  22
ENDBRANCH  19  21
ENDBRANCH   1  19
TORSDOF 7
