REMARK  8 active torsions:
REMARK  status: ('A' for Active; 'I' for Inactive)
REMARK       I    between atoms: C_2  and  N_3 
REMARK    1  A    between atoms: C_2  and  C_21 
REMARK    2  A    between atoms: N_3  and  C_4 
REMARK    3  A    between atoms: C_4  and  C_5 
REMARK    4  A    between atoms: C_5  and  C_6 
REMARK    5  A    between atoms: C_6  and  C_7 
REMARK    6  A    between atoms: C_7  and  N_8 
REMARK    7  A    between atoms: N_11  and  C_12 
REMARK    8  A    between atoms: C_24  and  C_25 
ROOT
ATOM      1  C   UNL d   1       9.561   4.627 -12.714  0.00  0.00     0.029 C 
ENDROOT
BRANCH   1   2
ATOM      2  C   UNL d   1       8.944   5.934 -12.190  0.00  0.00     0.129 C 
BRANCH   2   3
ATOM      3  N   UNL d   1       9.460   6.265 -10.866  0.00  0.00    -0.234 NA
ATOM      4  C   UNL d   1       9.854   7.488 -10.472  0.00  0.00     0.275 C 
ATOM      5  O   UNL d   1       9.859   8.466 -11.215  0.00  0.00    -0.266 OA
BRANCH   4   6
ATOM      6  C   UNL d   1      10.293   7.599  -9.043  0.00  0.00     0.058 A 
ATOM      7  C   UNL d   1       9.575   6.941  -8.021  0.00  0.00     0.005 A 
ATOM      8  C   UNL d   1       9.965   7.072  -6.675  0.00  0.00     0.000 A 
ATOM      9  C   UNL d   1      11.058   7.893  -6.326  0.00  0.00     0.001 A 
ATOM     10  C   UNL d   1      11.758   8.579  -7.341  0.00  0.00     0.000 A 
ATOM     11  C   UNL d   1      11.377   8.436  -8.691  0.00  0.00     0.005 A 
BRANCH   9  12
ATOM     12  C   UNL d   1      11.459   8.008  -4.925  0.00  0.00     0.007 A 
ATOM     13  C   UNL d   1      11.658   6.975  -4.044  0.00  0.00     0.035 A 
ATOM     14  S   UNL d   1      12.144   7.530  -2.467  0.00  0.00    -0.086 SA
ATOM     15  C   UNL d   1      12.050   9.187  -2.994  0.00  0.00     0.035 A 
ATOM     16  C   UNL d   1      11.690   9.279  -4.314  0.00  0.00     0.007 A 
ENDBRANCH   9  12
ENDBRANCH   4   6
ENDBRANCH   2   3
ENDBRANCH   1   2
BRANCH   1  17
ATOM     17  C   UNL d   1       8.952   4.173 -14.047  0.00  0.00     0.037 C 
BRANCH  17  18
ATOM     18  C   UNL d   1       9.383   2.742 -14.436  0.00  0.00     0.251 C 
BRANCH  18  19
ATOM     19  N   UNL d   1       8.711   2.287 -15.651  0.00  0.00     0.141 N 
ATOM     20  C   UNL d   1       7.314   1.921 -15.364  0.00  0.00     0.274 C 
ATOM     21  C   UNL d   1       6.612   1.453 -16.647  0.00  0.00     0.137 C 
ATOM     22  N   UNL d   1       7.318   0.334 -17.245  0.00  0.00    -0.344 N 
ATOM     23  C   UNL d   1       8.742   0.581 -17.455  0.00  0.00     0.137 C 
ATOM     24  C   UNL d   1       9.395   1.085 -16.153  0.00  0.00     0.274 C 
BRANCH  22  25
ATOM     25  C   UNL d   1       6.672  -0.879 -17.581  0.00  0.00     0.056 A 
ATOM     26  C   UNL d   1       7.227  -1.754 -18.552  0.00  0.00     0.019 A 
ATOM     27  C   UNL d   1       6.609  -2.982 -18.857  0.00  0.00     0.029 A 
ATOM     28  C   UNL d   1       5.407  -3.347 -18.227  0.00  0.00     0.131 A 
ATOM     29  C   UNL d   1       4.830  -2.479 -17.291  0.00  0.00     0.029 A 
ATOM     30  O   UNL d   1       4.795  -4.536 -18.503  0.00  0.00    -0.190 OA
ATOM     31  C   UNL d   1       5.460  -1.272 -16.951  0.00  0.00     0.019 A 
ENDBRANCH  22  25
ENDBRANCH  18  19
ENDBRANCH  17  18
ENDBRANCH   1  17
TORSDOF 8
