REMARK  11 active torsions:
REMARK  status: ('A' for Active; 'I' for Inactive)
REMARK    1  A    between atoms: C_2  and  O_3 
REMARK    2  A    between atoms: O_3  and  C_4 
REMARK    3  A    between atoms: C_9  and  N_10 
REMARK    4  A    between atoms: N_13  and  C_14 
REMARK    5  A    between atoms: C_14  and  C_15 
REMARK    6  A    between atoms: C_15  and  C_16 
REMARK    7  A    between atoms: C_16  and  C_17 
REMARK       I    between atoms: C_17  and  N_19 
REMARK    8  A    between atoms: N_19  and  C_20 
REMARK    9  A    between atoms: C_20  and  C_21 
REMARK   10  A    between atoms: N_32  and  C_33 
REMARK   11  A    between atoms: C_36  and  O_37 
ROOT
ATOM      1  C   UNL d   1      11.267   3.552 -15.817  0.00  0.00     0.252 C 
ATOM      2  O   UNL d   1      11.296   4.780 -15.722  0.00  0.00    -0.271 OA
ATOM      3  N   UNL d   1      11.587   2.876 -16.933  0.00  0.00    -0.230 NA
ENDROOT
BRANCH   3   4
ATOM      4  C   UNL d   1      11.711   3.557 -18.218  0.00  0.00     0.192 C 
BRANCH   4   5
ATOM      5  C   UNL d   1      12.614   2.762 -19.151  0.00  0.00     0.151 A 
ATOM      6  N   UNL d   1      13.847   3.366 -19.499  0.00  0.00    -0.261 N 
ATOM      7  C   UNL d   1      14.746   2.689 -20.258  0.00  0.00     0.267 A 
ATOM      8  C   UNL d   1      14.343   1.326 -20.729  0.00  0.00     0.074 A 
ATOM      9  O   UNL d   1      15.862   3.131 -20.569  0.00  0.00    -0.267 OA
ATOM     10  C   UNL d   1      13.075   0.837 -20.363  0.00  0.00     0.090 A 
ATOM     11  C   UNL d   1      15.212   0.543 -21.527  0.00  0.00     0.009 A 
ATOM     12  N   UNL d   1      12.221   1.578 -19.537  0.00  0.00    -0.230 NA
ATOM     13  C   UNL d   1      12.659  -0.428 -20.834  0.00  0.00     0.049 A 
ATOM     14  C   UNL d   1      13.525  -1.203 -21.637  0.00  0.00     0.142 A 
ATOM     15  F   UNL d   1      13.130  -2.416 -22.085  0.00  0.00    -0.204 F 
ATOM     16  C   UNL d   1      14.799  -0.723 -21.974  0.00  0.00     0.030 A 
BRANCH   6  17
ATOM     17  C   UNL d   1      14.161   4.711 -19.144  0.00  0.00     0.068 A 
ATOM     18  C   UNL d   1      14.904   4.988 -17.981  0.00  0.00     0.020 A 
ATOM     19  C   UNL d   1      15.190   6.325 -17.637  0.00  0.00     0.026 A 
ATOM     20  C   UNL d   1      14.750   7.393 -18.448  0.00  0.00     0.094 A 
ATOM     21  C   UNL d   1      14.003   7.103 -19.616  0.00  0.00     0.026 A 
ATOM     22  C   UNL d   1      13.711   5.770 -19.963  0.00  0.00     0.020 A 
BRANCH  20  23
ATOM     23  O   UNL d   1      15.083   8.667 -18.042  0.00  0.00    -0.328 OA
ATOM     24  C   UNL d   1      14.884   9.739 -18.956  0.00  0.00     0.181 C 
ENDBRANCH  20  23
ENDBRANCH   6  17
ENDBRANCH   4   5
ENDBRANCH   3   4
BRANCH   1  25
ATOM     25  C   UNL d   1      10.788   2.699 -14.648  0.00  0.00     0.092 C 
BRANCH  25  26
ATOM     26  C   UNL d   1      10.268   3.494 -13.447  0.00  0.00     0.045 C 
BRANCH  26  27
ATOM     27  C   UNL d   1       9.079   4.476 -13.712  0.00  0.00     0.251 C 
BRANCH  27  28
ATOM     28  N   UNL d   1       8.680   5.247 -12.540  0.00  0.00     0.141 N 
ATOM     29  C   UNL d   1       9.624   6.349 -12.335  0.00  0.00     0.274 C 
ATOM     30  C   UNL d   1       9.199   7.227 -11.166  0.00  0.00     0.137 C 
ATOM     31  N   UNL d   1       9.069   6.389  -9.973  0.00  0.00    -0.343 N 
ATOM     32  C   UNL d   1       8.178   5.265 -10.113  0.00  0.00     0.137 C 
ATOM     33  C   UNL d   1       8.615   4.428 -11.319  0.00  0.00     0.274 C 
BRANCH  31  34
ATOM     34  C   UNL d   1       9.716   6.722  -8.741  0.00  0.00     0.079 C 
ATOM     35  C   UNL d   1      10.976   7.368  -8.716  0.00  0.00     0.109 C 
ATOM     36  C   UNL d   1      11.540   7.808  -7.488  0.00  0.00     0.026 C 
ATOM     37  C   UNL d   1      10.905   7.448  -6.279  0.00  0.00     0.002 C 
ATOM     38  C   UNL d   1       9.650   6.799  -6.303  0.00  0.00     0.002 C 
ATOM     39  C   UNL d   1       9.047   6.457  -7.531  0.00  0.00     0.019 C 
BRANCH  35  40
ATOM     40  O   UNL d   1      11.609   7.512  -9.939  0.00  0.00    -0.329 OA
BRANCH  40  41
ATOM     41  C   UNL d   1      12.587   8.504 -10.069  0.00  0.00     0.149 C 
ATOM     42  C   UNL d   1      13.959   7.979  -9.623  0.00  0.00     0.035 C 
ENDBRANCH  40  41
ENDBRANCH  35  40
ENDBRANCH  31  34
ENDBRANCH  27  28
ENDBRANCH  26  27
ENDBRANCH  25  26
ENDBRANCH   1  25
TORSDOF 11
