REMARK  8 active torsions:
REMARK  status: ('A' for Active; 'I' for Inactive)
REMARK    1  A    between atoms: C_3  and  S_4 
REMARK    2  A    between atoms: S_4  and  C_5 
REMARK    3  A    between atoms: C_5  and  C_6 
REMARK    4  A    between atoms: C_6  and  C_7 
REMARK    5  A    between atoms: C_7  and  N_8 
REMARK    6  A    between atoms: C_12  and  C_13 
REMARK    7  A    between atoms: C_16  and  C_17 
REMARK    8  A    between atoms: C_26  and  C_27 
ROOT
ATOM      1  N   UNL d   1       8.358   2.641 -14.041  0.00  0.00     0.143 N 
ATOM      2  C   UNL d   1       7.051   2.061 -14.324  0.00  0.00     0.282 C 
ATOM      3  C   UNL d   1       7.160   0.568 -14.674  0.00  0.00     0.178 C 
ATOM      4  O   UNL d   1       8.035   0.406 -15.786  0.00  0.00    -0.348 OA
ATOM      5  C   UNL d   1       9.351   0.911 -15.555  0.00  0.00     0.171 C 
ATOM      6  C   UNL d   1       9.248   2.408 -15.165  0.00  0.00     0.284 C 
ENDROOT
BRANCH   1   7
ATOM      7  C   UNL d   1       8.300   4.066 -13.701  0.00  0.00     0.251 C 
BRANCH   7   8
ATOM      8  C   UNL d   1       7.638   4.392 -12.354  0.00  0.00     0.047 C 
BRANCH   8   9
ATOM      9  C   UNL d   1       7.471   5.896 -12.104  0.00  0.00     0.067 C 
BRANCH   9  10
ATOM     10  S   UNL d   1       9.053   6.778 -12.039  0.00  0.00    -0.075 SA
BRANCH  10  11
ATOM     11  C   UNL d   1       9.460   6.535 -10.337  0.00  0.00     0.193 A 
ATOM     12  N   UNL d   1       9.917   7.538  -9.565  0.00  0.00    -0.289 N 
ATOM     13  C   UNL d   1      10.169   8.913  -9.959  0.00  0.00     0.134 C 
ATOM     14  C   UNL d   1      10.049   6.939  -8.360  0.00  0.00     0.167 A 
ATOM     15  N   UNL d   1       9.750   5.635  -8.405  0.00  0.00    -0.128 NA
ATOM     16  N   UNL d   1       9.359   5.372  -9.696  0.00  0.00    -0.122 NA
BRANCH  14  17
ATOM     17  C   UNL d   1      10.485   7.603  -7.121  0.00  0.00     0.043 A 
ATOM     18  C   UNL d   1      10.389   8.935  -6.796  0.00  0.00     0.038 A 
ATOM     19  S   UNL d   1      11.076   9.300  -5.238  0.00  0.00    -0.086 SA
ATOM     20  C   UNL d   1      11.460   7.622  -4.986  0.00  0.00     0.035 A 
ATOM     21  C   UNL d   1      11.106   6.860  -6.068  0.00  0.00     0.011 A 
ENDBRANCH  14  17
ENDBRANCH  10  11
ENDBRANCH   9  10
ENDBRANCH   8   9
ENDBRANCH   7   8
ENDBRANCH   1   7
BRANCH   5  22
ATOM     22  C   UNL d   1      10.233   0.703 -16.786  0.00  0.00     0.007 A 
ATOM     23  C   UNL d   1      11.478   1.357 -16.886  0.00  0.00    -0.002 A 
ATOM     24  C   UNL d   1      12.265   1.208 -18.042  0.00  0.00     0.004 A 
ATOM     25  C   UNL d   1      11.834   0.382 -19.101  0.00  0.00     0.071 A 
ATOM     26  C   UNL d   1      10.605  -0.299 -18.986  0.00  0.00     0.004 A 
ATOM     27  C   UNL d   1       9.811  -0.139 -17.835  0.00  0.00    -0.002 A 
BRANCH  25  28
ATOM     28  C   UNL d   1      12.693   0.210 -20.340  0.00  0.00     0.419 C 
ATOM     29  F   UNL d   1      13.433  -0.891 -20.201  0.00  0.00    -0.166 F 
ATOM     30  F   UNL d   1      11.931   0.084 -21.431  0.00  0.00    -0.166 F 
ATOM     31  F   UNL d   1      13.507   1.255 -20.514  0.00  0.00    -0.166 F 
ENDBRANCH  25  28
ENDBRANCH   5  22
TORSDOF 8
