REMARK  6 active torsions:
REMARK  status: ('A' for Active; 'I' for Inactive)
REMARK    1  A    between atoms: C_2  and  O_3 
REMARK    2  A    between atoms: O_3  and  C_4 
REMARK    3  A    between atoms: C_4  and  C_6 
REMARK    4  A    between atoms: C_15  and  C_16 
REMARK    5  A    between atoms: C_16  and  N_17 
REMARK    6  A    between atoms: C_20  and  C_21 
ROOT
ATOM      1  C   UNL d   1      13.123   3.531 -17.819  0.00  0.00     0.251 C 
ENDROOT
BRANCH   1   2
ATOM      2  C   UNL d   1      13.785   4.928 -17.776  0.00  0.00     0.048 C 
ATOM      3  C   UNL d   1      13.191   5.846 -18.878  0.00  0.00     0.072 C 
ATOM      4  C   UNL d   1      13.856   7.221 -18.981  0.00  0.00     0.174 C 
ATOM      5  C   UNL d   1      15.309   7.255 -18.717  0.00  0.00     0.051 A 
ATOM      6  O   UNL d   1      13.205   8.213 -19.309  0.00  0.00    -0.291 OA
ATOM      7  C   UNL d   1      15.913   6.133 -18.227  0.00  0.00     0.080 A 
ATOM      8  C   UNL d   1      16.325   8.247 -18.839  0.00  0.00     0.011 A 
ATOM      9  O   UNL d   1      17.250   6.340 -18.075  0.00  0.00    -0.306 OA
ATOM     10  C   UNL d   1      15.315   4.812 -17.886  0.00  0.00     0.054 C 
ATOM     11  C   UNL d   1      17.497   7.632 -18.444  0.00  0.00     0.159 A 
ATOM     12  C   UNL d   1      16.139   9.677 -19.304  0.00  0.00     0.033 C 
BRANCH  11  13
ATOM     13  C   UNL d   1      18.878   8.112 -18.359  0.00  0.00     0.319 C 
ATOM     14  O   UNL d   1      19.815   7.382 -18.031  0.00  0.00    -0.257 OA
BRANCH  13  15
ATOM     15  O   UNL d   1      19.014   9.419 -18.690  0.00  0.00    -0.297 OA
BRANCH  15  16
ATOM     16  C   UNL d   1      20.288  10.058 -18.679  0.00  0.00     0.152 C 
ATOM     17  C   UNL d   1      21.097   9.718 -19.941  0.00  0.00     0.035 C 
ENDBRANCH  15  16
ENDBRANCH  13  15
ENDBRANCH  11  13
ENDBRANCH   1   2
BRANCH   1  18
ATOM     18  N   UNL d   1      11.846   3.503 -17.111  0.00  0.00     0.137 N 
ATOM     19  C   UNL d   1      11.024   2.406 -17.630  0.00  0.00     0.251 C 
ATOM     20  C   UNL d   1       9.632   2.400 -16.979  0.00  0.00     0.041 C 
ATOM     21  C   UNL d   1       9.736   2.269 -15.452  0.00  0.00     0.047 C 
ATOM     22  C   UNL d   1      10.718   3.345 -14.963  0.00  0.00     0.041 C 
ATOM     23  C   UNL d   1      12.070   3.294 -15.681  0.00  0.00     0.251 C 
BRANCH  21  24
ATOM     24  C   UNL d   1       8.380   2.408 -14.792  0.00  0.00     0.087 A 
ATOM     25  C   UNL d   1       7.803   3.444 -14.002  0.00  0.00     0.041 A 
ATOM     26  C   UNL d   1       6.504   3.078 -13.642  0.00  0.00     0.129 A 
ATOM     27  C   UNL d   1       8.322   4.686 -13.555  0.00  0.00     0.006 A 
ATOM     28  O   UNL d   1       6.308   1.829 -14.213  0.00  0.00    -0.211 OA
ATOM     29  C   UNL d   1       5.660   3.882 -12.849  0.00  0.00     0.057 A 
ATOM     30  N   UNL d   1       7.476   1.433 -14.916  0.00  0.00    -0.131 NA
ATOM     31  C   UNL d   1       6.190   5.122 -12.409  0.00  0.00     0.142 A 
ATOM     32  F   UNL d   1       5.466   5.948 -11.636  0.00  0.00    -0.204 F 
ATOM     33  C   UNL d   1       7.501   5.515 -12.764  0.00  0.00     0.030 A 
ENDBRANCH  21  24
ENDBRANCH   1  18
TORSDOF 6
