REMARK  4 active torsions:
REMARK  status: ('A' for Active; 'I' for Inactive)
REMARK    1  A    between atoms: N_5  and  C_6 
REMARK    2  A    between atoms: C_11  and  C_12 
REMARK    3  A    between atoms: C_12  and  S_13 
REMARK    4  A    between atoms: S_13  and  C_14 
ROOT
ATOM      1  C   UNL d   1       9.280   5.931 -11.856  0.00  0.00     0.744 C 
ATOM      2  N   UNL d   1       8.898   7.044 -12.425  0.00  0.00     0.134 NA
ATOM      3  C   UNL d   1       9.154   8.074 -11.656  0.00  0.00     0.785 C 
ATOM      4  N   UNL d   1       8.631   9.193 -12.142  0.00  0.00     0.063 N 
ATOM      5  N   UNL d   1       9.809   8.170 -10.519  0.00  0.00    -0.041 NA
ATOM      6  C   UNL d   1      10.016   6.971 -10.007  0.00  0.00     0.187 C 
ATOM      7  N   UNL d   1       9.816   5.797 -10.625  0.00  0.00    -0.044 NA
ENDROOT
BRANCH   6   8
ATOM      8  C   UNL d   1      10.626   6.902  -8.621  0.00  0.00     0.129 C 
BRANCH   8   9
ATOM      9  S   UNL d   1       9.780   7.989  -7.412  0.00  0.00    -0.105 SA
BRANCH   9  10
ATOM     10  C   UNL d   1      10.811   7.981  -5.982  0.00  0.00     0.036 A 
ATOM     11  C   UNL d   1      11.523   9.121  -5.557  0.00  0.00     0.063 A 
ATOM     12  C   UNL d   1      12.314   9.089  -4.400  0.00  0.00     0.012 A 
ATOM     13 CL   UNL d   1      11.456  10.595  -6.408  0.00  0.00    -0.082 Cl
ATOM     14  C   UNL d   1      12.383   7.926  -3.618  0.00  0.00     0.001 A 
ATOM     15  C   UNL d   1      11.662   6.784  -4.033  0.00  0.00     0.001 A 
ATOM     16  C   UNL d   1      10.885   6.813  -5.215  0.00  0.00     0.007 A 
ENDBRANCH   9  10
ENDBRANCH   8   9
ENDBRANCH   6   8
BRANCH   1  17
ATOM     17  N   UNL d   1       9.255   4.841 -12.702  0.00  0.00    -0.178 N 
ATOM     18  C   UNL d   1       8.433   4.741 -13.918  0.00  0.00     0.155 C 
ATOM     19  C   UNL d   1       9.298   4.199 -15.066  0.00  0.00     0.275 C 
ATOM     20  N   UNL d   1       9.809   2.879 -14.726  0.00  0.00     0.143 N 
ATOM     21  C   UNL d   1      10.608   2.357 -15.823  0.00  0.00     0.286 C 
ATOM     22  C   UNL d   1      10.664   3.019 -13.559  0.00  0.00     0.275 C 
ATOM     23  C   UNL d   1       9.860   3.573 -12.385  0.00  0.00     0.155 C 
ENDBRANCH   1  17
TORSDOF 4
