REMARK  3 active torsions:
REMARK  status: ('A' for Active; 'I' for Inactive)
REMARK    1  A    between atoms: C_2  and  C_3 
REMARK    2  A    between atoms: C_3  and  N_4 
REMARK    3  A    between atoms: N_4  and  C_5 
ROOT
ATOM      1  C   UNL d   1      11.295   8.699  -5.604  0.00  0.00     0.261 C 
ATOM      2  C   UNL d   1      11.773   9.654  -6.698  0.00  0.00     0.041 C 
ATOM      3  C   UNL d   1      12.097   8.871  -7.980  0.00  0.00     0.028 C 
ATOM      4  C   UNL d   1      11.052   7.839  -8.352  0.00  0.00    -0.026 A 
ATOM      5  C   UNL d   1      11.056   7.342  -9.664  0.00  0.00    -0.003 A 
ATOM      6  C   UNL d   1      10.108   6.381 -10.049  0.00  0.00     0.027 A 
ATOM      7  C   UNL d   1       9.161   5.899  -9.134  0.00  0.00     0.131 A 
ATOM      8  O   UNL d   1       8.280   4.943  -9.534  0.00  0.00    -0.190 OA
ATOM      9  C   UNL d   1       9.139   6.410  -7.819  0.00  0.00     0.023 A 
ATOM     10  C   UNL d   1      10.085   7.381  -7.429  0.00  0.00    -0.022 A 
ATOM     11  C   UNL d   1      10.012   7.957  -6.032  0.00  0.00     0.062 C 
ENDROOT
BRANCH   1  12
ATOM     12  N   UNL d   1      11.071   9.438  -4.363  0.00  0.00     0.337 N 
BRANCH  12  13
ATOM     13  C   UNL d   1      11.963   8.974  -3.303  0.00  0.00     0.290 C 
BRANCH  13  14
ATOM     14  C   UNL d   1      11.515   7.599  -2.753  0.00  0.00     0.038 C 
ATOM     15  C   UNL d   1      12.649   6.835  -2.086  0.00  0.00     0.002 C 
ENDBRANCH  13  14
ENDBRANCH  12  13
ENDBRANCH   1  12
TORSDOF 3
