REMARK  10 active torsions:
REMARK  status: ('A' for Active; 'I' for Inactive)
REMARK    1  A    between atoms: O_2  and  C_3 
REMARK    2  A    between atoms: C_7  and  C_8 
REMARK    3  A    between atoms: C_8  and  C_9 
REMARK    4  A    between atoms: C_9  and  C_10 
REMARK    5  A    between atoms: C_15  and  O_16 
REMARK    6  A    between atoms: O_16  and  C_17 
REMARK    7  A    between atoms: C_17  and  C_18 
REMARK    8  A    between atoms: C_18  and  N_19 
REMARK    9  A    between atoms: C_24  and  O_25 
REMARK   10  A    between atoms: C_27  and  O_28 
ROOT
ATOM      1  O   UNL d   1       9.704   4.831 -13.421  0.00  0.00    -0.329 OA
ENDROOT
BRANCH   1   2
ATOM      2  C   UNL d   1       8.447   4.286 -13.325  0.00  0.00     0.090 A 
ATOM      3  C   UNL d   1       7.638   4.687 -12.236  0.00  0.00     0.001 A 
ATOM      4  C   UNL d   1       6.335   4.170 -12.084  0.00  0.00    -0.002 A 
ATOM      5  C   UNL d   1       5.845   3.229 -13.004  0.00  0.00    -0.000 A 
ATOM      6  C   UNL d   1       6.646   2.811 -14.079  0.00  0.00     0.002 A 
ATOM      7  C   UNL d   1       7.929   3.344 -14.243  0.00  0.00     0.024 A 
BRANCH   3   8
ATOM      8  C   UNL d   1       8.156   5.694 -11.220  0.00  0.00     0.033 C 
BRANCH   8   9
ATOM      9  C   UNL d   1       8.830   5.009 -10.025  0.00  0.00     0.031 C 
BRANCH   9  10
ATOM     10  C   UNL d   1       9.346   6.013  -9.016  0.00  0.00    -0.020 A 
ATOM     11  C   UNL d   1       8.671   6.285  -7.821  0.00  0.00    -0.004 A 
ATOM     12  C   UNL d   1       9.189   7.251  -6.930  0.00  0.00     0.002 A 
ATOM     13  C   UNL d   1      10.391   7.918  -7.231  0.00  0.00     0.024 A 
ATOM     14  C   UNL d   1      11.075   7.668  -8.420  0.00  0.00     0.094 A 
ATOM     15  C   UNL d   1      10.534   6.708  -9.334  0.00  0.00     0.020 A 
BRANCH  14  16
ATOM     16  O   UNL d   1      12.254   8.338  -8.682  0.00  0.00    -0.328 OA
ATOM     17  C   UNL d   1      12.806   8.188  -9.980  0.00  0.00     0.181 C 
ENDBRANCH  14  16
ENDBRANCH   9  10
ENDBRANCH   8   9
ENDBRANCH   3   8
ENDBRANCH   1   2
BRANCH   1  18
ATOM     18  C   UNL d   1      10.302   4.926 -14.699  0.00  0.00     0.184 C 
BRANCH  18  19
ATOM     19  C   UNL d   1      11.073   3.644 -15.045  0.00  0.00     0.283 C 
BRANCH  19  20
ATOM     20  N   UNL d   1      11.741   3.766 -16.339  0.00  0.00     0.144 N 
ATOM     21  C   UNL d   1      12.125   2.431 -16.778  0.00  0.00     0.277 C 
ATOM     22  C   UNL d   1      12.955   2.429 -18.043  0.00  0.00     0.009 A 
ATOM     23  C   UNL d   1      13.656   3.577 -18.428  0.00  0.00    -0.020 A 
ATOM     24  C   UNL d   1      13.074   1.238 -18.800  0.00  0.00     0.024 A 
ATOM     25  C   UNL d   1      13.520   4.849 -17.624  0.00  0.00     0.061 C 
ATOM     26  C   UNL d   1      14.471   3.559 -19.581  0.00  0.00     0.022 A 
ATOM     27  C   UNL d   1      12.936   4.599 -16.225  0.00  0.00     0.255 C 
ATOM     28  C   UNL d   1      14.600   2.365 -20.352  0.00  0.00     0.116 A 
ATOM     29  C   UNL d   1      13.912   1.202 -19.957  0.00  0.00     0.116 A 
BRANCH  28  30
ATOM     30  O   UNL d   1      15.396   2.315 -21.478  0.00  0.00    -0.326 OA
ATOM     31  C   UNL d   1      16.062   3.509 -21.882  0.00  0.00     0.181 C 
ENDBRANCH  28  30
BRANCH  29  32
ATOM     32  O   UNL d   1      14.074   0.051 -20.703  0.00  0.00    -0.326 OA
ATOM     33  C   UNL d   1      13.519  -1.162 -20.201  0.00  0.00     0.181 C 
ENDBRANCH  29  32
ENDBRANCH  19  20
ENDBRANCH  18  19
ENDBRANCH   1  18
TORSDOF 10
