REMARK  8 active torsions:
REMARK  status: ('A' for Active; 'I' for Inactive)
REMARK    1  A    between atoms: C_2  and  C_5 
REMARK    2  A    between atoms: C_7  and  N_8 
REMARK    3  A    between atoms: N_11  and  C_12 
REMARK    4  A    between atoms: C_12  and  C_13 
REMARK    5  A    between atoms: C_13  and  C_14 
REMARK    6  A    between atoms: C_14  and  S_15 
REMARK    7  A    between atoms: S_15  and  C_16 
REMARK    8  A    between atoms: C_26  and  C_27 
ROOT
ATOM      1  N   UNL d   1       7.959   3.727 -13.826  0.00  0.00    -0.330 N 
ATOM      2  C   UNL d   1       9.307   4.268 -13.890  0.00  0.00     0.138 C 
ATOM      3  C   UNL d   1       9.870   4.414 -12.468  0.00  0.00     0.274 C 
ATOM      4  N   UNL d   1       9.000   5.235 -11.625  0.00  0.00     0.141 N 
ATOM      5  C   UNL d   1       7.676   4.604 -11.560  0.00  0.00     0.274 C 
ATOM      6  C   UNL d   1       7.053   4.465 -12.950  0.00  0.00     0.138 C 
ENDROOT
BRANCH   1   7
ATOM      7  C   UNL d   1       7.595   2.576 -14.549  0.00  0.00     0.143 A 
ATOM      8  N   UNL d   1       8.306   2.288 -15.662  0.00  0.00    -0.214 NA
ATOM      9  C   UNL d   1       7.921   1.255 -16.415  0.00  0.00     0.140 A 
ATOM     10  N   UNL d   1       6.931   0.416 -16.107  0.00  0.00    -0.227 NA
ATOM     11  C   UNL d   1       6.213   0.667 -14.991  0.00  0.00     0.157 A 
ATOM     12  C   UNL d   1       6.510   1.767 -14.164  0.00  0.00     0.060 A 
BRANCH   9  13
ATOM     13  C   UNL d   1       8.802   0.879 -17.619  0.00  0.00     0.052 C 
ATOM     14  C   UNL d   1       9.875  -0.126 -17.180  0.00  0.00     0.008 C 
ATOM     15  C   UNL d   1       9.499   2.124 -18.219  0.00  0.00     0.008 C 
ATOM     16  C   UNL d   1       7.937   0.264 -18.751  0.00  0.00     0.008 C 
ENDBRANCH   9  13
BRANCH  11  17
ATOM     17  C   UNL d   1       5.082  -0.302 -14.677  0.00  0.00     0.435 C 
ATOM     18  F   UNL d   1       4.361   0.122 -13.641  0.00  0.00    -0.165 F 
ATOM     19  F   UNL d   1       4.265  -0.441 -15.719  0.00  0.00    -0.165 F 
ATOM     20  F   UNL d   1       5.591  -1.490 -14.376  0.00  0.00    -0.165 F 
ENDBRANCH  11  17
ENDBRANCH   1   7
BRANCH   4  21
ATOM     21  C   UNL d   1       9.580   5.369 -10.285  0.00  0.00     0.251 C 
BRANCH  21  22
ATOM     22  C   UNL d   1       8.960   6.522  -9.493  0.00  0.00     0.047 C 
BRANCH  22  23
ATOM     23  C   UNL d   1       9.577   6.692  -8.095  0.00  0.00     0.067 C 
BRANCH  23  24
ATOM     24  S   UNL d   1       9.610   8.430  -7.576  0.00  0.00    -0.075 SA
BRANCH  24  25
ATOM     25  C   UNL d   1      10.571   8.347  -6.036  0.00  0.00     0.193 A 
ATOM     26  N   UNL d   1      11.073   7.280  -5.480  0.00  0.00    -0.183 NA
ATOM     27  C   UNL d   1      11.766   7.380  -4.258  0.00  0.00     0.283 A 
ATOM     28  C   UNL d   1      11.910   8.716  -3.674  0.00  0.00     0.083 A 
ATOM     29  O   UNL d   1      12.213   6.396  -3.675  0.00  0.00    -0.265 OA
ATOM     30  C   UNL d   1      11.359   9.765  -4.304  0.00  0.00     0.106 A 
ATOM     31  N   UNL d   1      10.680   9.622  -5.499  0.00  0.00    -0.220 NA
ENDBRANCH  24  25
ENDBRANCH  23  24
ENDBRANCH  22  23
ENDBRANCH  21  22
ENDBRANCH   4  21
TORSDOF 8
