REMARK  7 active torsions:
REMARK  status: ('A' for Active; 'I' for Inactive)
REMARK    1  A    between atoms: C_8  and  O_9 
REMARK    2  A    between atoms: O_9  and  C_10 
REMARK    3  A    between atoms: C_10  and  C_11 
REMARK    4  A    between atoms: C_11  and  C_12 
REMARK    5  A    between atoms: C_12  and  C_13 
REMARK    6  A    between atoms: C_13  and  N_14 
REMARK    7  A    between atoms: N_17  and  C_18 
ROOT
ATOM      1  N   UNL d   1       8.865   4.737 -12.685  0.00  0.00     0.141 N 
ATOM      2  C   UNL d   1       8.791   5.410 -13.989  0.00  0.00     0.274 C 
ATOM      3  C   UNL d   1      10.178   5.468 -14.724  0.00  0.00     0.137 C 
ATOM      4  N   UNL d   1      10.761   4.146 -14.795  0.00  0.00    -0.343 N 
ATOM      5  C   UNL d   1      10.771   3.386 -13.563  0.00  0.00     0.137 C 
ATOM      6  C   UNL d   1       9.381   3.385 -12.923  0.00  0.00     0.274 C 
ENDROOT
BRANCH   1   7
ATOM      7  C   UNL d   1       9.721   5.433 -11.724  0.00  0.00     0.251 C 
BRANCH   7   8
ATOM      8  C   UNL d   1       9.250   6.835 -11.307  0.00  0.00     0.038 C 
BRANCH   8   9
ATOM      9  C   UNL d   1      10.246   7.456 -10.313  0.00  0.00     0.035 C 
BRANCH   9  10
ATOM     10  C   UNL d   1       9.721   8.777  -9.695  0.00  0.00     0.149 C 
BRANCH  10  11
ATOM     11  O   UNL d   1      10.662   9.249  -8.735  0.00  0.00    -0.331 OA
BRANCH  11  12
ATOM     12  C   UNL d   1      10.665   8.618  -7.510  0.00  0.00     0.096 A 
ATOM     13  C   UNL d   1       9.825   7.515  -7.202  0.00  0.00     0.024 A 
ATOM     14  C   UNL d   1       9.971   6.848  -6.001  0.00  0.00    -0.001 A 
ATOM     15  C   UNL d   1      10.919   7.247  -5.058  0.00  0.00    -0.004 A 
ATOM     16  C   UNL d   1      11.102   6.482  -3.777  0.00  0.00     0.038 C 
ATOM     17  C   UNL d   1      11.699   8.400  -5.294  0.00  0.00     0.082 A 
ATOM     18  C   UNL d   1      11.500   7.415  -2.607  0.00  0.00     0.095 C 
ATOM     19  C   UNL d   1      12.554   8.415  -3.004  0.00  0.00     0.256 C 
ATOM     20  O   UNL d   1      13.262   8.789  -2.082  0.00  0.00    -0.270 OA
ATOM     21  N   UNL d   1      12.606   8.856  -4.271  0.00  0.00    -0.212 NA
ATOM     22  C   UNL d   1      11.586   9.085  -6.534  0.00  0.00     0.043 A 
ENDBRANCH  11  12
ENDBRANCH  10  11
ENDBRANCH   9  10
ENDBRANCH   8   9
ENDBRANCH   7   8
ENDBRANCH   1   7
BRANCH   4  23
ATOM     23  C   UNL d   1      11.192   3.625 -16.014  0.00  0.00     0.080 A 
ATOM     24  C   UNL d   1      10.897   2.292 -16.371  0.00  0.00     0.128 A 
ATOM     25  C   UNL d   1      11.380   1.783 -17.593  0.00  0.00     0.108 A 
ATOM     26  O   UNL d   1      10.168   1.480 -15.523  0.00  0.00    -0.318 OA
ATOM     27  C   UNL d   1      12.129   2.596 -18.470  0.00  0.00     0.021 A 
ATOM     28  N   UNL d   1      11.132   0.430 -17.914  0.00  0.00    -0.208 NA
ATOM     29  C   UNL d   1      12.378   3.939 -18.128  0.00  0.00     0.003 A 
ATOM     30  C   UNL d   1      11.911   4.448 -16.906  0.00  0.00     0.019 A 
ATOM     31  C   UNL d   1      10.283  -0.330 -17.212  0.00  0.00     0.286 C 
ATOM     32  C   UNL d   1       9.469   0.373 -16.105  0.00  0.00     0.238 C 
ATOM     33  O   UNL d   1      10.148  -1.529 -17.442  0.00  0.00    -0.267 OA
ENDBRANCH   4  23
TORSDOF 7
