REMARK  6 active torsions:
REMARK  status: ('A' for Active; 'I' for Inactive)
REMARK    1  A    between atoms: C_2  and  C_3 
REMARK    2  A    between atoms: C_2  and  C_20 
REMARK    3  A    between atoms: C_3  and  C_4 
REMARK    4  A    between atoms: C_4  and  C_5 
REMARK    5  A    between atoms: C_5  and  N_6 
REMARK    6  A    between atoms: C_9  and  C_11 
ROOT
ATOM      1  N   UNL d   1       9.774   6.207 -10.031  0.00  0.00     0.137 N 
ATOM      2  C   UNL d   1       8.759   5.985  -9.002  0.00  0.00     0.253 C 
ATOM      3  C   UNL d   1       9.333   6.317  -7.621  0.00  0.00     0.070 C 
ATOM      4  C   UNL d   1       9.902   7.747  -7.498  0.00  0.00     0.149 C 
ATOM      5  O   UNL d   1       8.818   8.650  -7.632  0.00  0.00    -0.221 OA
ATOM      6  C   UNL d   1      10.849   7.997  -8.682  0.00  0.00     0.070 C 
ATOM      7  C   UNL d   1      10.203   7.606 -10.035  0.00  0.00     0.253 C 
ENDROOT
BRANCH   1   8
ATOM      8  C   UNL d   1       9.224   5.886 -11.354  0.00  0.00     0.251 C 
BRANCH   8   9
ATOM      9  C   UNL d   1       9.021   4.375 -11.518  0.00  0.00     0.043 C 
BRANCH   9  10
ATOM     10  C   UNL d   1       8.861   3.920 -12.982  0.00  0.00     0.071 C 
BRANCH  10  11
ATOM     11  C   UNL d   1       7.398   3.809 -13.429  0.00  0.00     0.175 C 
ATOM     12  O   UNL d   1       6.604   4.734 -13.212  0.00  0.00    -0.291 OA
BRANCH  11  13
ATOM     13  C   UNL d   1       6.979   2.531 -14.044  0.00  0.00     0.064 A 
ATOM     14  C   UNL d   1       7.646   2.035 -15.194  0.00  0.00     0.143 A 
ATOM     15  C   UNL d   1       7.209   0.846 -15.803  0.00  0.00     0.032 A 
ATOM     16  F   UNL d   1       8.679   2.723 -15.737  0.00  0.00    -0.204 F 
ATOM     17  C   UNL d   1       6.124   0.131 -15.259  0.00  0.00     0.032 A 
ATOM     18  C   UNL d   1       5.460   0.620 -14.116  0.00  0.00     0.140 A 
ATOM     19  C   UNL d   1       5.865   1.837 -13.533  0.00  0.00     0.035 A 
ATOM     20  F   UNL d   1       4.416  -0.068 -13.600  0.00  0.00    -0.204 F 
ENDBRANCH  11  13
ENDBRANCH  10  11
ENDBRANCH   9  10
ENDBRANCH   8   9
ENDBRANCH   1   8
BRANCH   4  21
ATOM     21  C   UNL d   1      10.639   8.000  -6.155  0.00  0.00     0.005 A 
ATOM     22  C   UNL d   1      11.216   6.932  -5.414  0.00  0.00    -0.001 A 
ATOM     23  C   UNL d   1      11.835   7.163  -4.176  0.00  0.00     0.011 A 
ATOM     24  C   UNL d   1      11.909   8.461  -3.654  0.00  0.00     0.058 A 
ATOM     25  C   UNL d   1      11.363   9.539  -4.385  0.00  0.00     0.011 A 
ATOM     26 CL   UNL d   1      12.652   8.719  -2.113  0.00  0.00    -0.082 Cl
ATOM     27  C   UNL d   1      10.739   9.300  -5.630  0.00  0.00    -0.001 A 
ENDBRANCH   4  21
TORSDOF 6
