REMARK  6 active torsions:
REMARK  status: ('A' for Active; 'I' for Inactive)
REMARK    1  A    between atoms: C_8  and  O_9 
REMARK    2  A    between atoms: O_9  and  C_10 
REMARK    3  A    between atoms: C_10  and  C_11 
REMARK    4  A    between atoms: C_11  and  C_12 
REMARK    5  A    between atoms: C_12  and  N_13 
REMARK    6  A    between atoms: N_16  and  C_17 
ROOT
ATOM      1  N   UNL d   1       9.530   5.474 -12.012  0.00  0.00     0.141 N 
ATOM      2  C   UNL d   1       9.614   4.017 -11.884  0.00  0.00     0.274 C 
ATOM      3  C   UNL d   1      10.252   3.410 -13.141  0.00  0.00     0.137 C 
ATOM      4  N   UNL d   1       9.475   3.768 -14.303  0.00  0.00    -0.344 N 
ATOM      5  C   UNL d   1       9.267   5.189 -14.443  0.00  0.00     0.137 C 
ATOM      6  C   UNL d   1       8.668   5.778 -13.153  0.00  0.00     0.274 C 
ENDROOT
BRANCH   1   7
ATOM      7  C   UNL d   1       8.946   6.079 -10.818  0.00  0.00     0.253 C 
BRANCH   7   8
ATOM      8  C   UNL d   1       9.858   5.937  -9.590  0.00  0.00     0.068 C 
BRANCH   8   9
ATOM      9  C   UNL d   1       9.304   6.707  -8.399  0.00  0.00     0.151 C 
BRANCH   9  10
ATOM     10  O   UNL d   1      10.062   6.322  -7.255  0.00  0.00    -0.331 OA
BRANCH  10  11
ATOM     11  C   UNL d   1      10.646   7.245  -6.420  0.00  0.00     0.094 A 
ATOM     12  C   UNL d   1      10.862   8.607  -6.770  0.00  0.00     0.024 A 
ATOM     13  C   UNL d   1      11.453   9.501  -5.855  0.00  0.00    -0.000 A 
ATOM     14  C   UNL d   1      11.838   8.998  -4.603  0.00  0.00     0.007 A 
ATOM     15  C   UNL d   1      12.489   9.688  -3.449  0.00  0.00     0.155 A 
ATOM     16  C   UNL d   1      11.672   7.675  -4.260  0.00  0.00     0.057 A 
ATOM     17  N   UNL d   1      12.635   8.631  -2.451  0.00  0.00    -0.229 NA
ATOM     18  C   UNL d   1      12.193   7.442  -2.884  0.00  0.00     0.275 A 
ATOM     19  O   UNL d   1      12.211   6.386  -2.274  0.00  0.00    -0.266 OA
ATOM     20  C   UNL d   1      11.071   6.780  -5.149  0.00  0.00     0.029 A 
ENDBRANCH  10  11
ENDBRANCH   9  10
ENDBRANCH   8   9
ENDBRANCH   7   8
ENDBRANCH   1   7
BRANCH   4  21
ATOM     21  C   UNL d   1       9.018   2.833 -15.246  0.00  0.00     0.054 A 
ATOM     22  C   UNL d   1       9.083   3.082 -16.637  0.00  0.00     0.018 A 
ATOM     23  C   UNL d   1       8.589   2.184 -17.567  0.00  0.00     0.091 A 
ATOM     24  C   UNL d   1       9.656   4.258 -17.365  0.00  0.00     0.062 C 
ATOM     25  C   UNL d   1       7.989   0.976 -17.162  0.00  0.00     0.024 A 
ATOM     26  O   UNL d   1       8.749   2.611 -18.856  0.00  0.00    -0.331 OA
ATOM     27  C   UNL d   1       7.921   0.694 -15.780  0.00  0.00     0.004 A 
ATOM     28  C   UNL d   1       8.440   1.610 -14.834  0.00  0.00     0.017 A 
ATOM     29  C   UNL d   1       9.546   3.809 -18.830  0.00  0.00     0.154 C 
ENDBRANCH   4  21
TORSDOF 6
