REMARK  6 active torsions:
REMARK  status: ('A' for Active; 'I' for Inactive)
REMARK       I    between atoms: C_2  and  N_3 
REMARK    1  A    between atoms: C_2  and  C_22 
REMARK    2  A    between atoms: N_3  and  C_4 
REMARK    3  A    between atoms: C_4  and  C_5 
REMARK    4  A    between atoms: C_5  and  C_6 
REMARK    5  A    between atoms: C_6  and  C_7 
REMARK    6  A    between atoms: C_7  and  N_8 
ROOT
ATOM      1  N   UNL d   1      10.386   6.726  -8.847  0.00  0.00     0.143 N 
ATOM      2  C   UNL d   1      11.129   7.459  -9.876  0.00  0.00     0.282 C 
ATOM      3  C   UNL d   1      11.837   8.694  -9.333  0.00  0.00     0.178 C 
ATOM      4  O   UNL d   1      10.863   9.534  -8.733  0.00  0.00    -0.348 OA
ATOM      5  C   UNL d   1      10.085   8.899  -7.715  0.00  0.00     0.173 C 
ATOM      6  C   UNL d   1      10.868   8.650  -6.430  0.00  0.00     0.029 A 
ATOM      7  C   UNL d   1      11.859   9.556  -6.003  0.00  0.00     0.000 A 
ATOM      8  C   UNL d   1      12.573   9.309  -4.816  0.00  0.00    -0.000 A 
ATOM      9  C   UNL d   1      12.301   8.166  -4.040  0.00  0.00     0.002 A 
ATOM     10  C   UNL d   1      11.326   7.251  -4.479  0.00  0.00     0.024 A 
ATOM     11  C   UNL d   1      10.588   7.501  -5.653  0.00  0.00     0.092 A 
ATOM     12  O   UNL d   1       9.610   6.600  -6.014  0.00  0.00    -0.329 OA
ATOM     13  C   UNL d   1       8.674   7.012  -7.005  0.00  0.00     0.185 C 
ATOM     14  C   UNL d   1       9.405   7.613  -8.223  0.00  0.00     0.280 C 
ENDROOT
BRANCH   1  15
ATOM     15  C   UNL d   1       9.840   5.449  -9.311  0.00  0.00     0.251 C 
BRANCH  15  16
ATOM     16  C   UNL d   1       9.317   5.404 -10.750  0.00  0.00     0.037 C 
BRANCH  16  17
ATOM     17  C   UNL d   1       7.802   5.189 -10.857  0.00  0.00     0.029 C 
BRANCH  17  18
ATOM     18  C   UNL d   1       7.292   5.368 -12.300  0.00  0.00     0.129 C 
BRANCH  18  19
ATOM     19  N   UNL d   1       7.771   4.331 -13.208  0.00  0.00    -0.234 NA
ATOM     20  C   UNL d   1       9.034   4.207 -13.650  0.00  0.00     0.275 C 
ATOM     21  O   UNL d   1       9.910   5.049 -13.433  0.00  0.00    -0.266 OA
BRANCH  20  22
ATOM     22  C   UNL d   1       9.322   2.993 -14.484  0.00  0.00     0.058 A 
ATOM     23  C   UNL d   1       8.412   1.910 -14.588  0.00  0.00     0.006 A 
ATOM     24  C   UNL d   1       8.700   0.796 -15.406  0.00  0.00     0.012 A 
ATOM     25  C   UNL d   1       9.914   0.747 -16.126  0.00  0.00     0.058 A 
ATOM     26  C   UNL d   1      10.851   1.794 -15.994  0.00  0.00     0.012 A 
ATOM     27 CL   UNL d   1      10.256  -0.579 -17.177  0.00  0.00    -0.082 Cl
ATOM     28  C   UNL d   1      10.554   2.900 -15.173  0.00  0.00     0.006 A 
ENDBRANCH  20  22
ENDBRANCH  18  19
ENDBRANCH  17  18
ENDBRANCH  16  17
ENDBRANCH  15  16
ENDBRANCH   1  15
TORSDOF 6
