REMARK  4 active torsions:
REMARK  status: ('A' for Active; 'I' for Inactive)
REMARK    1  A    between atoms: C_4  and  C_5 
REMARK    2  A    between atoms: C_7  and  C_8 
REMARK    3  A    between atoms: C_8  and  N_9 
REMARK    4  A    between atoms: N_12  and  C_13 
ROOT
ATOM      1  N   UNL d   1       6.405   3.216 -12.829  0.00  0.00     0.147 N 
ATOM      2  C   UNL d   1       6.844   3.130 -14.216  0.00  0.00     0.275 C 
ATOM      3  C   UNL d   1       7.155   1.679 -14.624  0.00  0.00     0.138 C 
ATOM      4  N   UNL d   1       5.999   0.818 -14.370  0.00  0.00    -0.328 N 
ATOM      5  C   UNL d   1       5.459   0.937 -13.020  0.00  0.00     0.138 C 
ATOM      6  C   UNL d   1       5.191   2.418 -12.659  0.00  0.00     0.275 C 
ENDROOT
BRANCH   1   7
ATOM      7  C   UNL d   1       6.172   4.605 -12.444  0.00  0.00     0.297 C 
BRANCH   7   8
ATOM      8  C   UNL d   1       7.441   5.338 -12.135  0.00  0.00     0.113 A 
ATOM      9  N   UNL d   1       7.875   5.580 -10.845  0.00  0.00    -0.228 NA
ATOM     10  C   UNL d   1       9.020   6.282 -10.879  0.00  0.00     0.162 A 
ATOM     11  N   UNL d   1       9.378   6.508 -12.145  0.00  0.00    -0.224 NA
ATOM     12  C   UNL d   1       8.388   5.924 -12.935  0.00  0.00     0.117 A 
BRANCH  10  13
ATOM     13  C   UNL d   1       9.745   6.770  -9.701  0.00  0.00     0.036 A 
ATOM     14  C   UNL d   1      10.786   7.718  -9.839  0.00  0.00     0.003 A 
ATOM     15  C   UNL d   1      11.494   8.175  -8.710  0.00  0.00     0.000 A 
ATOM     16  C   UNL d   1      11.152   7.707  -7.427  0.00  0.00     0.000 A 
ATOM     17  C   UNL d   1      10.096   6.788  -7.276  0.00  0.00     0.000 A 
ATOM     18  C   UNL d   1       9.395   6.324  -8.407  0.00  0.00     0.003 A 
ENDBRANCH  10  13
ENDBRANCH   7   8
ENDBRANCH   1   7
BRANCH   4  19
ATOM     19  C   UNL d   1       5.428  -0.021 -15.352  0.00  0.00     0.160 A 
ATOM     20  N   UNL d   1       4.218  -0.571 -15.081  0.00  0.00    -0.224 NA
ATOM     21  C   UNL d   1       3.654  -1.347 -16.034  0.00  0.00     0.121 A 
ATOM     22  C   UNL d   1       4.291  -1.595 -17.266  0.00  0.00     0.120 A 
ATOM     23  N   UNL d   1       5.497  -1.060 -17.548  0.00  0.00    -0.238 NA
ATOM     24  C   UNL d   1       6.063  -0.289 -16.593  0.00  0.00     0.136 A 
ENDBRANCH   4  19
TORSDOF 4
