REMARK  4 active torsions:
REMARK  status: ('A' for Active; 'I' for Inactive)
REMARK    1  A    between atoms: S_2  and  C_4 
REMARK    2  A    between atoms: S_2  and  C_14 
REMARK    3  A    between atoms: C_20  and  N_21 
REMARK    4  A    between atoms: N_21  and  C_22 
ROOT
ATOM      1  C   UNL d   1       7.653   4.858 -12.806  0.00  0.00     0.192 C 
ATOM      2  N   UNL d   1       6.450   4.924 -12.292  0.00  0.00    -0.136 NA
ATOM      3  N   UNL d   1       5.850   3.787 -12.714  0.00  0.00    -0.147 NA
ATOM      4  C   UNL d   1       6.601   3.079 -13.625  0.00  0.00     0.105 A 
ATOM      5  C   UNL d   1       6.330   1.934 -14.363  0.00  0.00     0.022 A 
ATOM      6  C   UNL d   1       7.276   1.486 -15.282  0.00  0.00     0.020 A 
ATOM      7  C   UNL d   1       8.559   2.106 -15.399  0.00  0.00     0.076 A 
ATOM      8  C   UNL d   1       8.830   3.242 -14.601  0.00  0.00     0.022 A 
ATOM      9  C   UNL d   1       7.844   3.761 -13.721  0.00  0.00     0.051 A 
ENDROOT
BRANCH   1  10
ATOM     10  S   UNL d   1       8.915   6.018 -12.415  0.00  0.00     0.228 S 
ATOM     11  O   UNL d   1       8.326   7.310 -12.776  0.00  0.00    -0.216 OA
ATOM     12  O   UNL d   1      10.149   5.532 -13.057  0.00  0.00    -0.216 OA
BRANCH  10  13
ATOM     13  C   UNL d   1       9.126   5.946 -10.637  0.00  0.00     0.089 A 
ATOM     14  C   UNL d   1       9.756   6.986  -9.894  0.00  0.00     0.011 A 
ATOM     15  C   UNL d   1       9.835   6.860  -8.486  0.00  0.00     0.001 A 
ATOM     16  C   UNL d   1      10.300   8.148 -10.476  0.00  0.00     0.001 A 
ATOM     17  C   UNL d   1       9.284   5.744  -7.857  0.00  0.00     0.000 A 
ATOM     18  C   UNL d   1      10.455   7.837  -7.683  0.00  0.00     0.000 A 
ATOM     19  C   UNL d   1       8.687   4.714  -8.586  0.00  0.00     0.001 A 
ATOM     20  C   UNL d   1       8.636   4.803  -9.975  0.00  0.00     0.011 A 
ATOM     21  C   UNL d   1      11.018   8.968  -8.283  0.00  0.00     0.000 A 
ATOM     22  C   UNL d   1      10.947   9.118  -9.678  0.00  0.00     0.000 A 
ENDBRANCH  10  13
ENDBRANCH   1  10
BRANCH   7  23
ATOM     23  N   UNL d   1       9.563   1.625 -16.255  0.00  0.00    -0.273 NA
BRANCH  23  24
ATOM     24  C   UNL d   1       9.293   0.979 -17.537  0.00  0.00     0.108 C 
ATOM     25  C   UNL d   1      10.551   0.972 -18.424  0.00  0.00     0.062 C 
ATOM     26  C   UNL d   1      10.321   0.157 -19.726  0.00  0.00     0.292 C 
ATOM     27  N   UNL d   1       9.916  -1.214 -19.434  0.00  0.00     0.339 N 
ATOM     28  C   UNL d   1       8.675  -1.199 -18.700  0.00  0.00     0.292 C 
ATOM     29  C   UNL d   1       8.880  -0.502 -17.371  0.00  0.00     0.062 C 
ENDBRANCH  23  24
ENDBRANCH   7  23
TORSDOF 4
