REMARK  4 active torsions:
REMARK  status: ('A' for Active; 'I' for Inactive)
REMARK    1  A    between atoms: C_2  and  C_3 
REMARK    2  A    between atoms: C_7  and  O_8 
REMARK    3  A    between atoms: O_8  and  C_9 
REMARK    4  A    between atoms: C_9  and  C_10 
ROOT
ATOM      1  C   UNL d   1       7.103  -0.328 -13.838  0.00  0.00     0.022 C 
ATOM      2  C   UNL d   1       7.746   0.627 -14.900  0.00  0.00     0.147 C 
ATOM      3  C   UNL d   1       9.290   0.423 -15.086  0.00  0.00     0.266 C 
ATOM      4  O   UNL d   1       9.995  -0.002 -14.178  0.00  0.00    -0.269 OA
ATOM      5  N   UNL d   1       9.896   0.836 -16.184  0.00  0.00    -0.211 NA
ATOM      6  C   UNL d   1       9.223   1.270 -17.311  0.00  0.00     0.089 A 
ATOM      7  C   UNL d   1       9.959   1.907 -18.321  0.00  0.00     0.031 A 
ATOM      8  C   UNL d   1       9.289   2.278 -19.500  0.00  0.00     0.060 A 
ATOM      9 CL   UNL d   1      10.142   3.090 -20.747  0.00  0.00    -0.082 Cl
ATOM     10  C   UNL d   1       7.927   1.972 -19.654  0.00  0.00     0.023 A 
ATOM     11  C   UNL d   1       7.180   1.294 -18.651  0.00  0.00     0.063 A 
ATOM     12 CL   UNL d   1       5.500   0.884 -18.955  0.00  0.00    -0.082 Cl
ATOM     13  C   UNL d   1       7.835   1.000 -17.425  0.00  0.00     0.064 A 
ATOM     14  C   UNL d   1       7.115   0.371 -16.279  0.00  0.00     0.187 C 
ATOM     15  O   UNL d   1       6.104  -0.302 -16.375  0.00  0.00    -0.290 OA
ENDROOT
BRANCH   2  16
ATOM     16  C   UNL d   1       7.475   2.053 -14.407  0.00  0.00    -0.005 A 
ATOM     17  C   UNL d   1       8.454   3.088 -14.199  0.00  0.00     0.021 A 
ATOM     18  C   UNL d   1       8.060   4.355 -13.723  0.00  0.00     0.094 A 
ATOM     19  C   UNL d   1       6.708   4.596 -13.402  0.00  0.00     0.024 A 
ATOM     20  C   UNL d   1       5.752   3.596 -13.594  0.00  0.00     0.002 A 
ATOM     21  C   UNL d   1       6.152   2.322 -14.044  0.00  0.00    -0.003 A 
BRANCH  18  22
ATOM     22  O   UNL d   1       9.057   5.299 -13.642  0.00  0.00    -0.326 OA
BRANCH  22  23
ATOM     23  C   UNL d   1       8.908   6.431 -12.789  0.00  0.00     0.175 C 
BRANCH  23  24
ATOM     24  C   UNL d   1       9.094   6.127 -11.305  0.00  0.00     0.008 A 
ATOM     25  C   UNL d   1       9.863   7.039 -10.537  0.00  0.00    -0.002 A 
ATOM     26  C   UNL d   1      10.056   6.821  -9.160  0.00  0.00    -0.000 A 
ATOM     27  C   UNL d   1       9.469   5.707  -8.527  0.00  0.00    -0.000 A 
ATOM     28  C   UNL d   1       8.690   4.807  -9.277  0.00  0.00    -0.000 A 
ATOM     29  C   UNL d   1       8.510   5.024 -10.655  0.00  0.00    -0.002 A 
ENDBRANCH  23  24
ENDBRANCH  22  23
ENDBRANCH  18  22
ENDBRANCH   2  16
TORSDOF 4
