REMARK  7 active torsions:
REMARK  status: ('A' for Active; 'I' for Inactive)
REMARK    1  A    between atoms: C_2  and  C_3 
REMARK       I    between atoms: C_2  and  N_10 
REMARK    2  A    between atoms: C_3  and  C_4 
REMARK    3  A    between atoms: N_10  and  C_11 
REMARK    4  A    between atoms: C_14  and  C_15 
REMARK    5  A    between atoms: C_15  and  C_16 
REMARK    6  A    between atoms: C_16  and  N_17 
REMARK    7  A    between atoms: N_20  and  C_21 
ROOT
ATOM      1  C   UNL d   1       8.151   2.936 -14.158  0.00  0.00     0.084 A 
ATOM      2  C   UNL d   1       9.386   3.344 -13.629  0.00  0.00     0.019 A 
ATOM      3  C   UNL d   1       9.429   4.290 -12.593  0.00  0.00    -0.003 A 
ATOM      4  C   UNL d   1       8.240   4.846 -12.077  0.00  0.00    -0.020 A 
ATOM      5  C   UNL d   1       6.997   4.438 -12.606  0.00  0.00    -0.003 A 
ATOM      6  C   UNL d   1       6.950   3.495 -13.650  0.00  0.00     0.019 A 
ENDROOT
BRANCH   4   7
ATOM      7  C   UNL d   1       8.257   5.860 -10.943  0.00  0.00     0.062 C 
BRANCH   7   8
ATOM      8  C   UNL d   1       9.656   6.177 -10.367  0.00  0.00     0.255 C 
BRANCH   8   9
ATOM      9  N   UNL d   1       9.622   7.146  -9.276  0.00  0.00     0.141 N 
ATOM     10  C   UNL d   1      10.972   7.659  -9.022  0.00  0.00     0.274 C 
ATOM     11  C   UNL d   1      10.967   8.701  -7.883  0.00  0.00     0.137 C 
ATOM     12  N   UNL d   1      10.358   8.119  -6.702  0.00  0.00    -0.344 N 
ATOM     13  C   UNL d   1       9.057   7.499  -6.899  0.00  0.00     0.137 C 
ATOM     14  C   UNL d   1       9.113   6.500  -8.063  0.00  0.00     0.274 C 
BRANCH  12  15
ATOM     15  C   UNL d   1      11.005   8.135  -5.461  0.00  0.00     0.056 A 
ATOM     16  C   UNL d   1      11.427   9.361  -4.910  0.00  0.00     0.017 A 
ATOM     17  C   UNL d   1      12.040   9.396  -3.644  0.00  0.00     0.002 A 
ATOM     18  C   UNL d   1      12.268   8.204  -2.932  0.00  0.00     0.000 A 
ATOM     19  C   UNL d   1      11.858   6.973  -3.481  0.00  0.00     0.002 A 
ATOM     20  C   UNL d   1      11.218   6.939  -4.741  0.00  0.00     0.017 A 
ENDBRANCH  12  15
ENDBRANCH   8   9
ENDBRANCH   7   8
ENDBRANCH   4   7
BRANCH   1  21
ATOM     21  N   UNL d   1       8.187   1.993 -15.211  0.00  0.00    -0.211 NA
ATOM     22  C   UNL d   1       7.257   1.075 -15.512  0.00  0.00     0.260 C 
ATOM     23  O   UNL d   1       6.253   0.865 -14.831  0.00  0.00    -0.270 OA
BRANCH  22  24
ATOM     24  C   UNL d   1       7.536   0.242 -16.769  0.00  0.00     0.116 C 
BRANCH  24  25
ATOM     25  C   UNL d   1       6.256  -0.206 -17.457  0.00  0.00    -0.013 A 
ATOM     26  C   UNL d   1       5.849   0.397 -18.666  0.00  0.00    -0.004 A 
ATOM     27  C   UNL d   1       4.653  -0.011 -19.290  0.00  0.00    -0.000 A 
ATOM     28  C   UNL d   1       3.861  -1.018 -18.708  0.00  0.00    -0.000 A 
ATOM     29  C   UNL d   1       4.269  -1.630 -17.507  0.00  0.00    -0.000 A 
ATOM     30  C   UNL d   1       5.468  -1.231 -16.889  0.00  0.00    -0.004 A 
ENDBRANCH  24  25
ENDBRANCH  22  24
ENDBRANCH   1  21
TORSDOF 7
