REMARK  5 active torsions:
REMARK  status: ('A' for Active; 'I' for Inactive)
REMARK    1  A    between atoms: C_2  and  C_3 
REMARK    2  A    between atoms: C_3  and  O_4 
REMARK    3  A    between atoms: C_3  and  C_11 
REMARK    4  A    between atoms: O_4  and  C_5 
REMARK    5  A    between atoms: C_16  and  N_17 
ROOT
ATOM      1  C   UNL d   1       9.006   5.725 -12.287  0.00  0.00     0.203 C 
ATOM      2  N   UNL d   1      10.250   5.507 -12.734  0.00  0.00    -0.039 NA
ATOM      3  C   UNL d   1      10.368   4.395 -13.463  0.00  0.00     0.785 C 
ATOM      4  N   UNL d   1      11.640   4.081 -13.861  0.00  0.00     0.063 N 
ATOM      5  N   UNL d   1       9.407   3.571 -13.851  0.00  0.00     0.134 NA
ATOM      6  C   UNL d   1       8.212   3.911 -13.352  0.00  0.00     0.744 C 
ATOM      7  N   UNL d   1       7.957   4.920 -12.502  0.00  0.00    -0.043 NA
ENDROOT
BRANCH   1   8
ATOM      8  C   UNL d   1       8.689   7.003 -11.498  0.00  0.00     0.180 C 
BRANCH   8   9
ATOM      9  C   UNL d   1       7.897   8.107 -12.232  0.00  0.00     0.038 C 
ATOM     10  C   UNL d   1       6.432   7.663 -12.618  0.00  0.00     0.003 C 
ENDBRANCH   8   9
BRANCH   8  11
ATOM     11  O   UNL d   1       9.862   7.720 -11.062  0.00  0.00    -0.326 OA
BRANCH  11  12
ATOM     12  C   UNL d   1      10.335   7.660  -9.769  0.00  0.00     0.095 A 
ATOM     13  C   UNL d   1       9.668   7.012  -8.700  0.00  0.00     0.024 A 
ATOM     14  C   UNL d   1      10.204   7.037  -7.402  0.00  0.00     0.002 A 
ATOM     15  C   UNL d   1      11.418   7.696  -7.141  0.00  0.00     0.000 A 
ATOM     16  C   UNL d   1      12.104   8.331  -8.194  0.00  0.00     0.002 A 
ATOM     17  C   UNL d   1      11.566   8.315  -9.499  0.00  0.00     0.024 A 
ENDBRANCH  11  12
ENDBRANCH   8  11
ENDBRANCH   1   8
BRANCH   6  18
ATOM     18  N   UNL d   1       7.105   3.231 -13.857  0.00  0.00    -0.178 N 
ATOM     19  C   UNL d   1       5.735   3.485 -13.407  0.00  0.00     0.155 C 
ATOM     20  C   UNL d   1       5.132   2.192 -12.839  0.00  0.00     0.275 C 
ATOM     21  N   UNL d   1       5.222   1.113 -13.822  0.00  0.00     0.143 N 
ATOM     22  C   UNL d   1       6.611   0.852 -14.178  0.00  0.00     0.275 C 
ATOM     23  C   UNL d   1       4.603  -0.115 -13.361  0.00  0.00     0.286 C 
ATOM     24  C   UNL d   1       7.211   2.118 -14.802  0.00  0.00     0.155 C 
ENDBRANCH   6  18
TORSDOF 5
