REMARK  0 active torsions:
REMARK  status: ('A' for Active; 'I' for Inactive)
ROOT
ATOM      1  C   UNL d   1      11.959   4.172 -15.051  0.00  0.00     0.286 C 
ATOM      2  N   UNL d   1      10.710   3.836 -14.372  0.00  0.00     0.142 N 
ATOM      3  C   UNL d   1       9.997   5.079 -14.135  0.00  0.00     0.255 C 
ATOM      4  C   UNL d   1       8.840   4.772 -13.188  0.00  0.00     0.061 C 
ATOM      5  C   UNL d   1       7.902   3.674 -13.662  0.00  0.00    -0.022 A 
ATOM      6  C   UNL d   1       6.605   3.461 -13.169  0.00  0.00    -0.004 A 
ATOM      7  C   UNL d   1       5.863   2.366 -13.628  0.00  0.00    -0.000 A 
ATOM      8  C   UNL d   1       6.398   1.501 -14.598  0.00  0.00    -0.000 A 
ATOM      9  C   UNL d   1       7.678   1.688 -15.180  0.00  0.00    -0.002 A 
ATOM     10  C   UNL d   1       8.415   2.777 -14.638  0.00  0.00     0.005 A 
ATOM     11  C   UNL d   1       9.846   2.966 -15.185  0.00  0.00     0.246 C 
ATOM     12  C   UNL d   1      10.518   1.589 -15.411  0.00  0.00     0.064 C 
ATOM     13  C   UNL d   1       9.662   0.683 -16.275  0.00  0.00    -0.019 A 
ATOM     14  C   UNL d   1      10.286  -0.206 -17.169  0.00  0.00    -0.003 A 
ATOM     15  C   UNL d   1       9.515  -0.994 -18.035  0.00  0.00     0.019 A 
ATOM     16  C   UNL d   1       8.108  -0.888 -18.053  0.00  0.00     0.089 A 
ATOM     17  N   UNL d   1       7.255  -1.590 -18.902  0.00  0.00    -0.225 NA
ATOM     18  C   UNL d   1       5.993  -1.224 -18.676  0.00  0.00     0.181 A 
ATOM     19  N   UNL d   1       4.916  -1.746 -19.372  0.00  0.00    -0.072 NA
ATOM     20  S   UNL d   1       5.739  -0.009 -17.430  0.00  0.00    -0.052 SA
ATOM     21  C   UNL d   1       7.487   0.017 -17.132  0.00  0.00     0.049 A 
ATOM     22  C   UNL d   1       8.254   0.778 -16.204  0.00  0.00     0.003 A 
ENDROOT
TORSDOF 0
