REMARK  8 active torsions:
REMARK  status: ('A' for Active; 'I' for Inactive)
REMARK    1  A    between atoms: C_6  and  C_7 
REMARK    2  A    between atoms: C_10  and  S_11 
REMARK    3  A    between atoms: S_11  and  C_12 
REMARK    4  A    between atoms: C_12  and  C_13 
REMARK    5  A    between atoms: C_13  and  C_14 
REMARK    6  A    between atoms: C_14  and  N_15 
REMARK    7  A    between atoms: C_19  and  C_20 
REMARK    8  A    between atoms: C_23  and  C_24 
ROOT
ATOM      1  C   UNL d   1      10.089   4.698 -14.499  0.00  0.00     0.251 C 
ENDROOT
BRANCH   1   2
ATOM      2  C   UNL d   1      10.364   3.215 -14.800  0.00  0.00     0.047 C 
BRANCH   2   3
ATOM      3  C   UNL d   1      10.861   3.012 -16.235  0.00  0.00     0.067 C 
BRANCH   3   4
ATOM      4  S   UNL d   1      11.027   1.246 -16.649  0.00  0.00    -0.075 SA
BRANCH   4   5
ATOM      5  C   UNL d   1       9.368   0.859 -17.129  0.00  0.00     0.193 A 
ATOM      6  N   UNL d   1       8.330   1.689 -17.003  0.00  0.00    -0.122 NA
ATOM      7  N   UNL d   1       7.254   1.026 -17.544  0.00  0.00    -0.128 NA
ATOM      8  C   UNL d   1       7.731  -0.152 -17.954  0.00  0.00     0.174 A 
ATOM      9  N   UNL d   1       9.049  -0.319 -17.698  0.00  0.00    -0.288 N 
ATOM     10  C   UNL d   1       9.903  -1.469 -17.968  0.00  0.00     0.134 C 
BRANCH   8  11
ATOM     11  C   UNL d   1       6.862  -1.139 -18.571  0.00  0.00     0.080 A 
ATOM     12  C   UNL d   1       6.978  -1.794 -19.775  0.00  0.00     0.069 A 
ATOM     13  N   UNL d   1       5.923  -2.679 -20.020  0.00  0.00    -0.247 NA
ATOM     14  C   UNL d   1       8.056  -1.636 -20.806  0.00  0.00     0.053 C 
ATOM     15  C   UNL d   1       5.018  -2.683 -19.037  0.00  0.00     0.088 A 
ATOM     16  C   UNL d   1       3.803  -3.533 -19.044  0.00  0.00     0.059 C 
ATOM     17  S   UNL d   1       5.402  -1.578 -17.727  0.00  0.00    -0.068 SA
ENDBRANCH   8  11
ENDBRANCH   4   5
ENDBRANCH   3   4
ENDBRANCH   2   3
ENDBRANCH   1   2
BRANCH   1  18
ATOM     18  N   UNL d   1       9.681   4.903 -13.107  0.00  0.00     0.137 N 
ATOM     19  C   UNL d   1       9.315   6.281 -12.817  0.00  0.00     0.254 C 
ATOM     20  C   UNL d   1       8.540   6.179 -11.530  0.00  0.00     0.052 A 
ATOM     21  C   UNL d   1       7.955   4.797 -11.540  0.00  0.00     0.039 A 
ATOM     22  C   UNL d   1       7.033   5.985 -11.591  0.00  0.00     0.008 A 
ATOM     23  C   UNL d   1       8.493   4.134 -12.769  0.00  0.00     0.251 C 
BRANCH  20  24
ATOM     24  C   UNL d   1       9.254   6.729 -10.291  0.00  0.00    -0.021 A 
ATOM     25  C   UNL d   1       9.965   7.957 -10.368  0.00  0.00    -0.004 A 
ATOM     26  C   UNL d   1      10.592   8.499  -9.225  0.00  0.00     0.004 A 
ATOM     27  C   UNL d   1      10.482   7.840  -7.991  0.00  0.00     0.071 A 
ATOM     28  C   UNL d   1       9.725   6.657  -7.894  0.00  0.00     0.004 A 
ATOM     29  C   UNL d   1       9.111   6.116  -9.041  0.00  0.00    -0.004 A 
BRANCH  27  30
ATOM     30  C   UNL d   1      11.146   8.411  -6.747  0.00  0.00     0.419 C 
ATOM     31  F   UNL d   1      11.461   7.423  -5.908  0.00  0.00    -0.166 F 
ATOM     32  F   UNL d   1      12.261   9.070  -7.066  0.00  0.00    -0.166 F 
ATOM     33  F   UNL d   1      10.311   9.248  -6.128  0.00  0.00    -0.166 F 
ENDBRANCH  27  30
ENDBRANCH  20  24
ENDBRANCH   1  18
TORSDOF 8
