REMARK  9 active torsions:
REMARK  status: ('A' for Active; 'I' for Inactive)
REMARK       I    between atoms: C_2  and  N_4 
REMARK    1  A    between atoms: N_4  and  C_5 
REMARK    2  A    between atoms: C_9  and  C_10 
REMARK    3  A    between atoms: N_13  and  C_14 
REMARK    4  A    between atoms: C_14  and  C_15 
REMARK    5  A    between atoms: C_15  and  C_16 
REMARK    6  A    between atoms: C_16  and  C_17 
REMARK    7  A    between atoms: C_17  and  C_19 
REMARK    8  A    between atoms: C_22  and  O_23 
REMARK    9  A    between atoms: O_23  and  C_24 
ROOT
ATOM      1  C   UNL d   1       8.943   4.860 -12.618  0.00  0.00     0.251 C 
ENDROOT
BRANCH   1   2
ATOM      2  N   UNL d   1       9.544   5.574 -11.507  0.00  0.00     0.137 N 
ATOM      3  C   UNL d   1       9.328   4.832 -10.264  0.00  0.00     0.251 C 
ATOM      4  C   UNL d   1       9.956   5.556  -9.075  0.00  0.00     0.040 C 
ATOM      5  C   UNL d   1       9.429   6.989  -8.917  0.00  0.00     0.026 C 
ATOM      6  C   UNL d   1       9.550   7.687 -10.296  0.00  0.00     0.040 C 
ATOM      7  C   UNL d   1       8.899   6.875 -11.407  0.00  0.00     0.251 C 
BRANCH   5   8
ATOM      8  C   UNL d   1      10.158   7.746  -7.796  0.00  0.00    -0.021 A 
ATOM      9  C   UNL d   1      10.532   9.096  -7.961  0.00  0.00    -0.004 A 
ATOM     10  C   UNL d   1      11.196   9.796  -6.942  0.00  0.00     0.001 A 
ATOM     11  C   UNL d   1      11.524   9.165  -5.738  0.00  0.00     0.019 A 
ATOM     12  C   UNL d   1      11.166   7.808  -5.546  0.00  0.00     0.084 A 
ATOM     13  C   UNL d   1      10.475   7.115  -6.564  0.00  0.00     0.015 A 
BRANCH  12  14
ATOM     14  N   UNL d   1      11.471   7.071  -4.375  0.00  0.00    -0.212 NA
ATOM     15  C   UNL d   1      12.191   7.450  -3.306  0.00  0.00     0.256 C 
ATOM     16  C   UNL d   1      12.406   6.392  -2.250  0.00  0.00     0.100 C 
ATOM     17  O   UNL d   1      12.658   8.570  -3.113  0.00  0.00    -0.270 OA
ENDBRANCH  12  14
ENDBRANCH   5   8
ENDBRANCH   1   2
BRANCH   1  18
ATOM     18  C   UNL d   1       9.825   3.696 -13.094  0.00  0.00     0.043 C 
BRANCH  18  19
ATOM     19  C   UNL d   1       9.415   3.162 -14.475  0.00  0.00     0.071 C 
BRANCH  19  20
ATOM     20  C   UNL d   1       7.993   2.586 -14.562  0.00  0.00     0.173 C 
ATOM     21  O   UNL d   1       7.147   2.857 -13.711  0.00  0.00    -0.291 OA
BRANCH  20  22
ATOM     22  C   UNL d   1       7.677   1.730 -15.732  0.00  0.00     0.035 A 
ATOM     23  C   UNL d   1       6.454   1.032 -15.720  0.00  0.00     0.005 A 
ATOM     24  C   UNL d   1       6.062   0.254 -16.818  0.00  0.00     0.025 A 
ATOM     25  C   UNL d   1       6.916   0.137 -17.937  0.00  0.00     0.100 A 
ATOM     26  C   UNL d   1       8.143   0.838 -17.958  0.00  0.00     0.025 A 
ATOM     27  C   UNL d   1       8.521   1.640 -16.864  0.00  0.00     0.005 A 
BRANCH  25  28
ATOM     28  O   UNL d   1       6.553  -0.637 -19.007  0.00  0.00    -0.307 OA
BRANCH  28  29
ATOM     29  C   UNL d   1       6.455  -1.984 -18.777  0.00  0.00     0.100 A 
ATOM     30  C   UNL d   1       5.254  -2.539 -18.286  0.00  0.00     0.025 A 
ATOM     31  C   UNL d   1       5.164  -3.921 -18.041  0.00  0.00     0.002 A 
ATOM     32  C   UNL d   1       6.263  -4.760 -18.304  0.00  0.00     0.000 A 
ATOM     33  C   UNL d   1       7.454  -4.214 -18.815  0.00  0.00     0.002 A 
ATOM     34  C   UNL d   1       7.552  -2.826 -19.046  0.00  0.00     0.025 A 
ENDBRANCH  28  29
ENDBRANCH  25  28
ENDBRANCH  20  22
ENDBRANCH  19  20
ENDBRANCH  18  19
ENDBRANCH   1  18
TORSDOF 9
