REMARK  7 active torsions:
REMARK  status: ('A' for Active; 'I' for Inactive)
REMARK    1  A    between atoms: S_2  and  N_4 
REMARK    2  A    between atoms: S_2  and  C_23 
REMARK    3  A    between atoms: N_4  and  C_5 
REMARK    4  A    between atoms: N_8  and  C_9 
REMARK    5  A    between atoms: C_9  and  C_10 
REMARK    6  A    between atoms: C_10  and  O_11 
REMARK    7  A    between atoms: O_11  and  C_12 
ROOT
ATOM      1  C   UNL d   1       8.404   5.212 -11.227  0.00  0.00     0.151 C 
ATOM      2  C   UNL d   1       7.679   5.808 -12.419  0.00  0.00     0.063 C 
ATOM      3  C   UNL d   1       8.708   5.719 -13.541  0.00  0.00     0.253 C 
ATOM      4  N   UNL d   1       9.656   4.653 -13.224  0.00  0.00     0.142 N 
ATOM      5  C   UNL d   1       9.785   4.854 -11.793  0.00  0.00     0.275 C 
ENDROOT
BRANCH   4   6
ATOM      6  C   UNL d   1       9.130   3.312 -13.434  0.00  0.00     0.283 C 
BRANCH   6   7
ATOM      7  C   UNL d   1       8.777   3.028 -14.898  0.00  0.00     0.184 C 
BRANCH   7   8
ATOM      8  O   UNL d   1       8.480   1.672 -15.140  0.00  0.00    -0.329 OA
BRANCH   8   9
ATOM      9  C   UNL d   1       7.188   1.240 -14.895  0.00  0.00     0.090 C 
ATOM     10  C   UNL d   1       6.660   0.279 -15.779  0.00  0.00    -0.004 C 
ATOM     11  C   UNL d   1       5.354  -0.273 -15.534  0.00  0.00    -0.024 C 
ATOM     12  C   UNL d   1       7.488  -0.153 -16.986  0.00  0.00     0.028 C 
ATOM     13  C   UNL d   1       4.628   0.119 -14.387  0.00  0.00    -0.004 C 
ATOM     14  C   UNL d   1       4.700  -1.235 -16.505  0.00  0.00     0.026 C 
ATOM     15  C   UNL d   1       5.186   1.088 -13.542  0.00  0.00     0.002 C 
ATOM     16  C   UNL d   1       6.403   1.705 -13.817  0.00  0.00     0.024 C 
ATOM     17  C   UNL d   1       5.691  -1.905 -17.458  0.00  0.00     0.005 C 
ATOM     18  C   UNL d   1       6.660  -0.882 -18.065  0.00  0.00     0.005 C 
ENDBRANCH   8   9
ENDBRANCH   7   8
ENDBRANCH   6   7
ENDBRANCH   4   6
BRANCH   1  19
ATOM     19  N   UNL d   1       8.537   6.154 -10.114  0.00  0.00    -0.185 NA
BRANCH  19  20
ATOM     20  S   UNL d   1       9.083   5.608  -8.590  0.00  0.00     0.283 S 
ATOM     21  O   UNL d   1       7.940   5.576  -7.660  0.00  0.00    -0.199 OA
ATOM     22  O   UNL d   1       9.863   4.394  -8.830  0.00  0.00    -0.199 OA
BRANCH  20  23
ATOM     23  C   UNL d   1      10.158   6.925  -8.023  0.00  0.00     0.135 A 
ATOM     24  C   UNL d   1      11.023   7.569  -8.927  0.00  0.00     0.152 A 
ATOM     25  C   UNL d   1      11.860   8.602  -8.491  0.00  0.00     0.033 A 
ATOM     26  F   UNL d   1      11.078   7.201 -10.213  0.00  0.00    -0.203 F 
ATOM     27  C   UNL d   1      11.820   9.022  -7.150  0.00  0.00     0.032 A 
ATOM     28  C   UNL d   1      10.933   8.402  -6.243  0.00  0.00     0.141 A 
ATOM     29  C   UNL d   1      10.094   7.351  -6.678  0.00  0.00     0.045 A 
ATOM     30  F   UNL d   1      10.906   8.819  -4.956  0.00  0.00    -0.204 F 
ENDBRANCH  20  23
ENDBRANCH  19  20
ENDBRANCH   1  19
TORSDOF 7
