REMARK  5 active torsions:
REMARK  status: ('A' for Active; 'I' for Inactive)
REMARK    1  A    between atoms: C_2  and  C_3 
REMARK    2  A    between atoms: C_3  and  N_4 
REMARK    3  A    between atoms: C_17  and  O_18 
REMARK    4  A    between atoms: O_18  and  C_19 
REMARK    5  A    between atoms: C_19  and  C_20 
ROOT
ATOM      1  C   UNL d   1       8.080   5.729 -13.155  0.00  0.00    -0.002 C 
ATOM      2  C   UNL d   1       8.246   4.444 -12.928  0.00  0.00     0.019 C 
ATOM      3  C   UNL d   1       8.895   4.069 -11.621  0.00  0.00     0.173 C 
ATOM      4  O   UNL d   1       9.829   5.014 -11.089  0.00  0.00    -0.324 OA
ATOM      5  C   UNL d   1       9.512   6.339 -11.229  0.00  0.00     0.117 A 
ATOM      6  C   UNL d   1       8.628   6.718 -12.264  0.00  0.00     0.024 A 
ATOM      7  C   UNL d   1       8.292   8.054 -12.431  0.00  0.00     0.002 A 
ATOM      8  C   UNL d   1       8.943   8.980 -11.629  0.00  0.00     0.002 A 
ATOM      9  C   UNL d   1       9.827   8.627 -10.577  0.00  0.00     0.026 A 
ATOM     10  C   UNL d   1      10.140   7.266 -10.374  0.00  0.00     0.116 A 
ENDROOT
BRANCH  10  11
ATOM     11  O   UNL d   1      11.020   6.808  -9.435  0.00  0.00    -0.326 OA
BRANCH  11  12
ATOM     12  C   UNL d   1      11.777   7.748  -8.654  0.00  0.00     0.180 C 
BRANCH  12  13
ATOM     13  C   UNL d   1      11.166   7.768  -7.238  0.00  0.00     0.181 C 
ATOM     14  O   UNL d   1      11.692   6.650  -6.528  0.00  0.00    -0.350 OA
ATOM     15  C   UNL d   1      11.191   6.583  -5.202  0.00  0.00     0.181 C 
ATOM     16  C   UNL d   1      11.584   7.855  -4.428  0.00  0.00     0.322 C 
ATOM     17  N   UNL d   1      11.108   9.044  -5.123  0.00  0.00     0.345 N 
ATOM     18  C   UNL d   1      11.570   9.068  -6.503  0.00  0.00     0.322 C 
ENDBRANCH  12  13
ENDBRANCH  11  12
ENDBRANCH  10  11
BRANCH   2  19
ATOM     19  C   UNL d   1       7.631   3.384 -13.852  0.00  0.00     0.275 C 
BRANCH  19  20
ATOM     20  N   UNL d   1       8.587   2.882 -14.839  0.00  0.00     0.146 N 
ATOM     21  C   UNL d   1       9.909   2.581 -14.305  0.00  0.00     0.283 C 
ATOM     22  C   UNL d   1      10.877   2.014 -15.325  0.00  0.00     0.178 C 
ATOM     23  O   UNL d   1      10.309   0.836 -15.907  0.00  0.00    -0.350 OA
ATOM     24  C   UNL d   1       9.047   1.099 -16.512  0.00  0.00     0.178 C 
ATOM     25  C   UNL d   1       8.063   1.670 -15.486  0.00  0.00     0.283 C 
ENDBRANCH  19  20
ENDBRANCH   2  19
TORSDOF 5
