REMARK  7 active torsions:
REMARK  status: ('A' for Active; 'I' for Inactive)
REMARK    1  A    between atoms: S_2  and  N_4 
REMARK    2  A    between atoms: S_2  and  C_23 
REMARK    3  A    between atoms: N_4  and  C_5 
REMARK    4  A    between atoms: N_8  and  C_9 
REMARK    5  A    between atoms: C_9  and  C_10 
REMARK    6  A    between atoms: C_10  and  O_11 
REMARK    7  A    between atoms: O_11  and  C_12 
ROOT
ATOM      1  C   UNL d   1       8.547   4.397 -12.426  0.00  0.00     0.151 C 
ATOM      2  C   UNL d   1       7.349   5.215 -11.956  0.00  0.00     0.063 C 
ATOM      3  C   UNL d   1       7.862   5.851 -10.676  0.00  0.00     0.253 C 
ATOM      4  N   UNL d   1       8.884   4.941 -10.193  0.00  0.00     0.142 N 
ATOM      5  C   UNL d   1       9.626   4.608 -11.392  0.00  0.00     0.275 C 
ENDROOT
BRANCH   4   6
ATOM      6  C   UNL d   1       9.722   5.536  -9.174  0.00  0.00     0.283 C 
BRANCH   6   7
ATOM      7  C   UNL d   1       8.895   6.012  -7.960  0.00  0.00     0.184 C 
BRANCH   7   8
ATOM      8  O   UNL d   1       9.742   6.204  -6.834  0.00  0.00    -0.329 OA
BRANCH   8   9
ATOM      9  C   UNL d   1      10.415   7.371  -6.636  0.00  0.00     0.090 A 
ATOM     10  C   UNL d   1      11.086   7.580  -5.396  0.00  0.00    -0.004 A 
ATOM     11  C   UNL d   1      11.777   8.790  -5.158  0.00  0.00    -0.024 A 
ATOM     12  C   UNL d   1      11.079   6.475  -4.344  0.00  0.00     0.028 C 
ATOM     13  C   UNL d   1      11.822   9.782  -6.156  0.00  0.00    -0.004 A 
ATOM     14  C   UNL d   1      12.498   9.061  -3.849  0.00  0.00     0.026 C 
ATOM     15  C   UNL d   1      11.178   9.547  -7.388  0.00  0.00     0.002 A 
ATOM     16  C   UNL d   1      10.470   8.376  -7.626  0.00  0.00     0.024 A 
ATOM     17  C   UNL d   1      12.751   7.803  -3.001  0.00  0.00     0.005 C 
ATOM     18  C   UNL d   1      11.528   6.894  -2.929  0.00  0.00     0.005 C 
ENDBRANCH   8   9
ENDBRANCH   7   8
ENDBRANCH   6   7
ENDBRANCH   4   6
BRANCH   1  19
ATOM     19  N   UNL d   1       8.957   4.769 -13.789  0.00  0.00    -0.184 NA
BRANCH  19  20
ATOM     20  S   UNL d   1       9.597   3.572 -14.839  0.00  0.00     0.287 S 
ATOM     21  O   UNL d   1       9.600   4.133 -16.189  0.00  0.00    -0.198 OA
ATOM     22  O   UNL d   1      10.834   3.040 -14.226  0.00  0.00    -0.198 OA
BRANCH  20  23
ATOM     23  C   UNL d   1       8.389   2.256 -14.810  0.00  0.00     0.134 A 
ATOM     24  S   UNL d   1       8.861   0.597 -15.047  0.00  0.00    -0.073 SA
ATOM     25  C   UNL d   1       7.221   0.060 -14.777  0.00  0.00     0.036 A 
ATOM     26  C   UNL d   1       6.383   1.107 -14.503  0.00  0.00     0.008 A 
ATOM     27  C   UNL d   1       7.051   2.365 -14.524  0.00  0.00     0.020 A 
ENDBRANCH  20  23
ENDBRANCH  19  20
ENDBRANCH   1  19
TORSDOF 7
