REMARK  4 active torsions:
REMARK  status: ('A' for Active; 'I' for Inactive)
REMARK    1  A    between atoms: C_4  and  O_5 
REMARK    2  A    between atoms: O_5  and  C_6 
REMARK    3  A    between atoms: C_6  and  C_7 
REMARK    4  A    between atoms: N_12  and  C_13 
ROOT
ATOM      1  C   UNL d   1       9.720   4.751 -12.755  0.00  0.00     0.064 C 
ATOM      2  C   UNL d   1       8.846   5.470 -13.768  0.00  0.00     0.007 C 
ATOM      3  C   UNL d   1       9.309   5.075 -15.176  0.00  0.00     0.035 C 
ATOM      4  C   UNL d   1       9.206   3.555 -15.374  0.00  0.00     0.242 C 
ATOM      5  C   UNL d   1       9.604   3.169 -16.813  0.00  0.00     0.153 C 
ATOM      6  N   UNL d   1       9.551   1.721 -16.997  0.00  0.00    -0.179 N 
ATOM      7  C   UNL d   1      10.402   1.040 -16.020  0.00  0.00     0.155 C 
ATOM      8  C   UNL d   1      10.008   1.457 -14.596  0.00  0.00     0.275 C 
ATOM      9  N   UNL d   1      10.107   2.912 -14.410  0.00  0.00     0.139 N 
ATOM     10  C   UNL d   1       9.639   3.256 -13.059  0.00  0.00     0.253 C 
ENDROOT
BRANCH   1  11
ATOM     11  C   UNL d   1       9.299   5.098 -11.312  0.00  0.00     0.151 C 
BRANCH  11  12
ATOM     12  O   UNL d   1       9.816   6.384 -10.968  0.00  0.00    -0.331 OA
BRANCH  12  13
ATOM     13  C   UNL d   1       9.761   6.785  -9.648  0.00  0.00     0.094 A 
ATOM     14  C   UNL d   1      10.432   7.978  -9.306  0.00  0.00     0.024 A 
ATOM     15  C   UNL d   1      10.431   8.454  -7.979  0.00  0.00     0.002 A 
ATOM     16  C   UNL d   1       9.747   7.740  -6.979  0.00  0.00     0.000 A 
ATOM     17  C   UNL d   1       9.061   6.557  -7.310  0.00  0.00     0.002 A 
ATOM     18  C   UNL d   1       9.067   6.077  -8.633  0.00  0.00     0.024 A 
ENDBRANCH  12  13
ENDBRANCH  11  12
ENDBRANCH   1  11
BRANCH   6  19
ATOM     19  C   UNL d   1       8.774   1.073 -17.963  0.00  0.00     0.727 A 
ATOM     20  N   UNL d   1       7.895   1.812 -18.667  0.00  0.00    -0.060 NA
ATOM     21  C   UNL d   1       7.165   1.179 -19.601  0.00  0.00     0.120 A 
ATOM     22  C   UNL d   1       7.288  -0.203 -19.839  0.00  0.00     0.043 A 
ATOM     23  C   UNL d   1       8.229  -0.879 -19.045  0.00  0.00     0.120 A 
ATOM     24  N   UNL d   1       8.970  -0.240 -18.121  0.00  0.00    -0.060 NA
ENDBRANCH   6  19
TORSDOF 4
