REMARK  8 active torsions:
REMARK  status: ('A' for Active; 'I' for Inactive)
REMARK    1  A    between atoms: O_2  and  C_3 
REMARK    2  A    between atoms: C_8  and  N_9 
REMARK    3  A    between atoms: N_12  and  C_13 
REMARK    4  A    between atoms: C_13  and  C_14 
REMARK    5  A    between atoms: C_14  and  C_16 
REMARK    6  A    between atoms: C_16  and  C_17 
REMARK    7  A    between atoms: C_17  and  N_18 
REMARK       I    between atoms: N_18  and  C_19 
REMARK    8  A    between atoms: C_19  and  C_21 
ROOT
ATOM      1  C   UNL d   1       8.664   7.455 -12.461  0.00  0.00     0.188 C 
ATOM      2  O   UNL d   1       7.618   8.369 -12.426  0.00  0.00    -0.221 OA
ENDROOT
BRANCH   1   3
ATOM      3  C   UNL d   1       8.069   6.106 -12.878  0.00  0.00     0.283 C 
BRANCH   3   4
ATOM      4  N   UNL d   1       9.026   5.038 -13.109  0.00  0.00     0.144 N 
ATOM      5  C   UNL d   1       8.307   3.792 -13.311  0.00  0.00     0.274 C 
ATOM      6  C   UNL d   1       9.306   2.665 -13.450  0.00  0.00     0.137 C 
ATOM      7  N   UNL d   1      10.181   2.871 -14.590  0.00  0.00    -0.343 N 
ATOM      8  C   UNL d   1      10.897   4.136 -14.520  0.00  0.00     0.137 C 
ATOM      9  C   UNL d   1       9.857   5.232 -14.301  0.00  0.00     0.274 C 
BRANCH   7  10
ATOM     10  C   UNL d   1      10.392   1.939 -15.629  0.00  0.00     0.079 A 
ATOM     11  C   UNL d   1       9.377   1.061 -16.117  0.00  0.00     0.110 A 
ATOM     12  C   UNL d   1       9.658   0.217 -17.221  0.00  0.00     0.026 A 
ATOM     13  C   UNL d   1      10.936   0.197 -17.808  0.00  0.00     0.002 A 
ATOM     14  C   UNL d   1      11.942   1.035 -17.313  0.00  0.00     0.002 A 
ATOM     15  C   UNL d   1      11.671   1.892 -16.234  0.00  0.00     0.019 A 
BRANCH  11  16
ATOM     16  O   UNL d   1       8.088   1.084 -15.623  0.00  0.00    -0.327 OA
ATOM     17  C   UNL d   1       7.735   0.144 -14.618  0.00  0.00     0.181 C 
ENDBRANCH  11  16
ENDBRANCH   7  10
ENDBRANCH   3   4
ENDBRANCH   1   3
BRANCH   1  18
ATOM     18  C   UNL d   1       9.325   7.385 -11.107  0.00  0.00     0.061 C 
BRANCH  18  19
ATOM     19  C   UNL d   1       9.793   8.738 -10.564  0.00  0.00     0.132 C 
BRANCH  19  20
ATOM     20  N   UNL d   1       9.935   8.757  -9.116  0.00  0.00    -0.233 NA
ATOM     21  C   UNL d   1      10.391   7.757  -8.334  0.00  0.00     0.293 C 
ATOM     22  O   UNL d   1      10.419   6.570  -8.640  0.00  0.00    -0.264 OA
BRANCH  21  23
ATOM     23  C   UNL d   1      10.918   8.170  -7.007  0.00  0.00     0.139 A 
ATOM     24  N   UNL d   1      10.953   7.229  -6.036  0.00  0.00    -0.241 NA
ATOM     25  C   UNL d   1      11.473   7.532  -4.846  0.00  0.00     0.082 A 
ATOM     26  C   UNL d   1      11.987   8.822  -4.568  0.00  0.00     0.020 A 
ATOM     27  C   UNL d   1      11.464   6.584  -3.814  0.00  0.00     0.021 A 
ATOM     28  C   UNL d   1      11.998   9.780  -5.595  0.00  0.00     0.003 A 
ATOM     29  C   UNL d   1      12.501   9.116  -3.304  0.00  0.00     0.031 A 
ATOM     30  C   UNL d   1      11.456   9.455  -6.834  0.00  0.00     0.024 A 
ATOM     31  C   UNL d   1      12.506   8.141  -2.300  0.00  0.00     0.140 A 
ATOM     32  F   UNL d   1      13.072   8.415  -1.115  0.00  0.00    -0.204 F 
ATOM     33  C   UNL d   1      11.973   6.870  -2.542  0.00  0.00     0.031 A 
ENDBRANCH  21  23
ENDBRANCH  19  20
ENDBRANCH  18  19
ENDBRANCH   1  18
TORSDOF 8
