REMARK  8 active torsions:
REMARK  status: ('A' for Active; 'I' for Inactive)
REMARK    1  A    between atoms: C_2  and  C_5 
REMARK    2  A    between atoms: C_8  and  C_9 
REMARK    3  A    between atoms: C_10  and  C_11 
REMARK    4  A    between atoms: C_11  and  O_12 
REMARK    5  A    between atoms: O_12  and  C_13 
REMARK    6  A    between atoms: C_13  and  C_14 
REMARK    7  A    between atoms: N_17  and  C_18 
REMARK    8  A    between atoms: C_18  and  C_19 
ROOT
ATOM      1  O   UNL d   1      10.544   5.186 -14.733  0.00  0.00    -0.349 OA
ENDROOT
BRANCH   1   2
ATOM      2  C   UNL d   1      11.129   4.854 -15.985  0.00  0.00     0.169 C 
BRANCH   2   3
ATOM      3  C   UNL d   1      10.346   5.438 -17.145  0.00  0.00     0.006 C 
ATOM      4  C   UNL d   1      10.834   6.321 -18.036  0.00  0.00    -0.002 C 
BRANCH   4   5
ATOM      5  C   UNL d   1      10.063   6.915 -19.137  0.00  0.00    -0.000 A 
ATOM      6  C   UNL d   1       8.704   6.616 -19.392  0.00  0.00    -0.000 A 
ATOM      7  C   UNL d   1       8.016   7.235 -20.452  0.00  0.00     0.004 A 
ATOM      8  C   UNL d   1       8.685   8.168 -21.278  0.00  0.00     0.071 A 
ATOM      9  C   UNL d   1      10.035   8.480 -21.014  0.00  0.00     0.004 A 
ATOM     10  C   UNL d   1      10.715   7.861 -19.953  0.00  0.00    -0.000 A 
BRANCH   8  11
ATOM     11  C   UNL d   1       7.956   8.848 -22.421  0.00  0.00     0.419 C 
ATOM     12  F   UNL d   1       6.975   8.072 -22.883  0.00  0.00    -0.166 F 
ATOM     13  F   UNL d   1       8.796   9.110 -23.424  0.00  0.00    -0.166 F 
ATOM     14  F   UNL d   1       7.434   9.993 -21.983  0.00  0.00    -0.166 F 
ENDBRANCH   8  11
ENDBRANCH   4   5
ENDBRANCH   2   3
ENDBRANCH   1   2
BRANCH   1  15
ATOM     15  C   UNL d   1       9.203   4.738 -14.562  0.00  0.00     0.143 C 
BRANCH  15  16
ATOM     16  C   UNL d   1       8.762   4.952 -13.119  0.00  0.00     0.034 C 
ATOM     17  C   UNL d   1       9.584   4.084 -12.176  0.00  0.00     0.038 C 
ATOM     18  C   UNL d   1       9.206   4.387 -10.716  0.00  0.00     0.251 C 
ATOM     19  N   UNL d   1       9.424   5.789 -10.409  0.00  0.00     0.141 N 
ATOM     20  C   UNL d   1       8.557   6.623 -11.230  0.00  0.00     0.251 C 
ATOM     21  C   UNL d   1       8.866   6.433 -12.714  0.00  0.00     0.038 C 
BRANCH  19  22
ATOM     22  C   UNL d   1       9.145   6.058  -8.992  0.00  0.00     0.277 C 
BRANCH  22  23
ATOM     23  C   UNL d   1      10.086   7.074  -8.359  0.00  0.00     0.011 A 
ATOM     24  C   UNL d   1      10.010   7.285  -6.967  0.00  0.00    -0.002 A 
ATOM     25  C   UNL d   1      10.889   8.190  -6.335  0.00  0.00    -0.000 A 
ATOM     26  C   UNL d   1      11.847   8.885  -7.096  0.00  0.00    -0.000 A 
ATOM     27  C   UNL d   1      11.930   8.670  -8.481  0.00  0.00    -0.000 A 
ATOM     28  C   UNL d   1      11.057   7.770  -9.116  0.00  0.00    -0.002 A 
ENDBRANCH  22  23
ENDBRANCH  19  22
ENDBRANCH  15  16
ENDBRANCH   1  15
TORSDOF 8
