REMARK  9 active torsions:
REMARK  status: ('A' for Active; 'I' for Inactive)
REMARK    1  A    between atoms: O_2  and  C_3 
REMARK    2  A    between atoms: C_8  and  N_9 
REMARK    3  A    between atoms: N_12  and  C_13 
REMARK    4  A    between atoms: C_13  and  C_14 
REMARK    5  A    between atoms: C_14  and  C_15 
REMARK    6  A    between atoms: C_15  and  C_16 
REMARK    7  A    between atoms: C_16  and  N_17 
REMARK       I    between atoms: N_17  and  C_18 
REMARK    8  A    between atoms: C_18  and  C_20 
REMARK    9  A    between atoms: C_21  and  C_22 
ROOT
ATOM      1  C   UNL d   1       5.979   3.207 -13.805  0.00  0.00     0.037 C 
ENDROOT
BRANCH   1   2
ATOM      2  C   UNL d   1       6.301   1.747 -14.219  0.00  0.00     0.251 C 
BRANCH   2   3
ATOM      3  N   UNL d   1       7.715   1.511 -14.534  0.00  0.00     0.141 N 
ATOM      4  C   UNL d   1       7.889   0.128 -14.999  0.00  0.00     0.274 C 
ATOM      5  C   UNL d   1       9.387  -0.169 -15.263  0.00  0.00     0.137 C 
ATOM      6  N   UNL d   1       9.952   0.807 -16.179  0.00  0.00    -0.343 N 
ATOM      7  C   UNL d   1       9.711   2.195 -15.844  0.00  0.00     0.137 C 
ATOM      8  C   UNL d   1       8.216   2.417 -15.574  0.00  0.00     0.274 C 
BRANCH   6   9
ATOM      9  C   UNL d   1      10.574   0.447 -17.384  0.00  0.00     0.079 A 
ATOM     10  C   UNL d   1       9.950  -0.431 -18.307  0.00  0.00     0.110 A 
ATOM     11  C   UNL d   1      10.639  -0.779 -19.496  0.00  0.00     0.026 A 
ATOM     12  C   UNL d   1      11.920  -0.262 -19.762  0.00  0.00     0.002 A 
ATOM     13  C   UNL d   1      12.525   0.623 -18.854  0.00  0.00     0.002 A 
ATOM     14  C   UNL d   1      11.847   0.982 -17.673  0.00  0.00     0.019 A 
BRANCH  10  15
ATOM     15  O   UNL d   1       8.680  -0.883 -18.011  0.00  0.00    -0.327 OA
ATOM     16  C   UNL d   1       8.060  -1.803 -18.893  0.00  0.00     0.181 C 
ENDBRANCH  10  15
ENDBRANCH   6   9
ENDBRANCH   2   3
ENDBRANCH   1   2
BRANCH   1  17
ATOM     17  C   UNL d   1       6.774   3.688 -12.586  0.00  0.00     0.029 C 
BRANCH  17  18
ATOM     18  C   UNL d   1       6.718   5.199 -12.376  0.00  0.00     0.129 C 
BRANCH  18  19
ATOM     19  N   UNL d   1       7.458   5.575 -11.190  0.00  0.00    -0.234 NA
ATOM     20  C   UNL d   1       8.762   5.885 -11.132  0.00  0.00     0.275 C 
ATOM     21  O   UNL d   1       9.497   5.926 -12.119  0.00  0.00    -0.266 OA
BRANCH  20  22
ATOM     22  C   UNL d   1       9.162   6.122  -9.760  0.00  0.00     0.062 C 
ATOM     23  C   UNL d   1       9.901   7.198  -9.423  0.00  0.00     0.005 C 
BRANCH  23  24
ATOM     24  C   UNL d   1      10.398   7.493  -8.064  0.00  0.00     0.001 A 
ATOM     25  C   UNL d   1      10.849   8.790  -7.738  0.00  0.00     0.012 A 
ATOM     26  C   UNL d   1      11.295   9.082  -6.431  0.00  0.00     0.068 A 
ATOM     27  C   UNL d   1      11.303   8.087  -5.433  0.00  0.00     0.068 A 
ATOM     28 CL   UNL d   1      11.821  10.672  -6.046  0.00  0.00    -0.082 Cl
ATOM     29  C   UNL d   1      10.859   6.795  -5.748  0.00  0.00     0.012 A 
ATOM     30 CL   UNL d   1      11.866   8.432  -3.831  0.00  0.00    -0.082 Cl
ATOM     31  C   UNL d   1      10.400   6.508  -7.051  0.00  0.00     0.001 A 
ENDBRANCH  23  24
ENDBRANCH  20  22
ENDBRANCH  18  19
ENDBRANCH  17  18
ENDBRANCH   1  17
TORSDOF 9
