REMARK  8 active torsions:
REMARK  status: ('A' for Active; 'I' for Inactive)
REMARK    1  A    between atoms: O_2  and  C_3 
REMARK    2  A    between atoms: C_6  and  C_7 
REMARK       I    between atoms: C_7  and  N_9 
REMARK    3  A    between atoms: N_12  and  C_13 
REMARK    4  A    between atoms: C_13  and  C_14 
REMARK    5  A    between atoms: C_14  and  O_15 
REMARK    6  A    between atoms: O_15  and  C_16 
REMARK    7  A    between atoms: C_19  and  O_20 
REMARK    8  A    between atoms: O_20  and  C_21 
ROOT
ATOM      1  C   UNL d   1      11.428   8.183  -8.270  0.00  0.00     0.257 C 
ATOM      2  O   UNL d   1      12.319   8.770  -8.842  0.00  0.00    -0.267 OA
ATOM      3  N   UNL d   1      10.300   7.712  -8.883  0.00  0.00    -0.312 N 
ATOM      4  C   UNL d   1       9.278   6.805  -8.306  0.00  0.00     0.140 C 
ATOM      5  C   UNL d   1       9.157   5.608  -9.285  0.00  0.00     0.274 C 
ATOM      6  N   UNL d   1       8.738   6.048 -10.626  0.00  0.00     0.144 N 
ATOM      7  C   UNL d   1       9.749   6.961 -11.166  0.00  0.00     0.274 C 
ATOM      8  C   UNL d   1       9.976   8.174 -10.250  0.00  0.00     0.140 C 
ENDROOT
BRANCH   6   9
ATOM      9  C   UNL d   1       8.538   4.880 -11.481  0.00  0.00     0.283 C 
BRANCH   9  10
ATOM     10  C   UNL d   1       8.162   5.288 -12.937  0.00  0.00     0.184 C 
BRANCH  10  11
ATOM     11  O   UNL d   1       8.342   4.181 -13.800  0.00  0.00    -0.329 OA
BRANCH  11  12
ATOM     12  C   UNL d   1       7.397   3.188 -13.804  0.00  0.00     0.094 A 
ATOM     13  C   UNL d   1       7.656   2.092 -14.635  0.00  0.00     0.026 A 
ATOM     14  C   UNL d   1       6.769   1.003 -14.682  0.00  0.00     0.026 A 
ATOM     15  C   UNL d   1       5.604   1.005 -13.882  0.00  0.00     0.102 A 
ATOM     16  C   UNL d   1       5.370   2.097 -13.028  0.00  0.00     0.026 A 
ATOM     17  C   UNL d   1       6.237   3.194 -12.996  0.00  0.00     0.026 A 
BRANCH  15  18
ATOM     18  O   UNL d   1       4.624   0.042 -13.936  0.00  0.00    -0.253 OA
BRANCH  18  19
ATOM     19  C   UNL d   1       4.645  -0.936 -14.881  0.00  0.00     0.530 C 
ATOM     20  F   UNL d   1       4.808  -0.440 -16.133  0.00  0.00    -0.144 F 
ATOM     21  F   UNL d   1       5.617  -1.839 -14.622  0.00  0.00    -0.144 F 
ATOM     22  F   UNL d   1       3.461  -1.591 -14.876  0.00  0.00    -0.144 F 
ENDBRANCH  18  19
ENDBRANCH  15  18
ENDBRANCH  11  12
ENDBRANCH  10  11
ENDBRANCH   9  10
ENDBRANCH   6   9
BRANCH   1  23
ATOM     23  C   UNL d   1      11.524   8.078  -6.778  0.00  0.00     0.056 A 
ATOM     24  C   UNL d   1      11.353   6.857  -6.111  0.00  0.00     0.007 A 
ATOM     25  C   UNL d   1      11.396   6.794  -4.709  0.00  0.00     0.024 A 
ATOM     26  C   UNL d   1      11.702   7.937  -3.950  0.00  0.00     0.094 A 
ATOM     27  C   UNL d   1      11.936   9.151  -4.636  0.00  0.00     0.024 A 
ATOM     28  C   UNL d   1      11.847   9.234  -6.034  0.00  0.00     0.007 A 
BRANCH  26  29
ATOM     29  O   UNL d   1      11.773   7.841  -2.575  0.00  0.00    -0.328 OA
ATOM     30  C   UNL d   1      12.270   8.972  -1.899  0.00  0.00     0.181 C 
ENDBRANCH  26  29
ENDBRANCH   1  23
TORSDOF 8
