REMARK  5 active torsions:
REMARK  status: ('A' for Active; 'I' for Inactive)
REMARK    1  A    between atoms: O_2  and  C_3 
REMARK    2  A    between atoms: C_6  and  N_7 
REMARK    3  A    between atoms: N_7  and  S_8 
REMARK    4  A    between atoms: S_8  and  C_11 
REMARK    5  A    between atoms: C_23  and  N_24 
ROOT
ATOM      1  C   UNL d   1       9.741   1.559 -15.776  0.00  0.00     0.110 A 
ATOM      2  C   UNL d   1      10.973   2.104 -15.339  0.00  0.00     0.027 A 
ATOM      3  C   UNL d   1      11.010   3.060 -14.304  0.00  0.00     0.022 A 
ATOM      4  C   UNL d   1       9.817   3.485 -13.688  0.00  0.00     0.095 A 
ATOM      5  C   UNL d   1       8.595   2.945 -14.118  0.00  0.00     0.039 A 
ATOM      6  C   UNL d   1       8.546   1.992 -15.157  0.00  0.00     0.080 A 
ENDROOT
BRANCH   4   7
ATOM      7  N   UNL d   1       9.856   4.429 -12.654  0.00  0.00    -0.158 NA
BRANCH   7   8
ATOM      8  S   UNL d   1       8.567   5.417 -12.025  0.00  0.00     0.291 S 
ATOM      9  O   UNL d   1       8.258   6.378 -13.091  0.00  0.00    -0.198 OA
ATOM     10  O   UNL d   1       7.547   4.496 -11.516  0.00  0.00    -0.198 OA
BRANCH   8  11
ATOM     11  C   UNL d   1       9.279   6.329 -10.654  0.00  0.00     0.131 A 
ATOM     12  C   UNL d   1       9.451   5.870  -9.364  0.00  0.00    -0.003 A 
ATOM     13  C   UNL d   1      10.067   6.877  -8.514  0.00  0.00     0.004 A 
ATOM     14  C   UNL d   1       9.038   4.516  -8.907  0.00  0.00     0.032 C 
ATOM     15  C   UNL d   1      10.369   8.075  -9.232  0.00  0.00     0.030 A 
ATOM     16  C   UNL d   1      10.426   6.862  -7.140  0.00  0.00     0.012 A 
ATOM     17  S   UNL d   1       9.857   7.955 -10.899  0.00  0.00    -0.074 SA
ATOM     18  C   UNL d   1      10.988   9.174  -8.620  0.00  0.00     0.007 A 
ATOM     19  C   UNL d   1      11.326   9.127  -7.253  0.00  0.00     0.012 A 
ATOM     20  C   UNL d   1      11.043   7.964  -6.516  0.00  0.00     0.058 A 
ATOM     21 CL   UNL d   1      11.469   7.877  -4.847  0.00  0.00    -0.082 Cl
ENDBRANCH   8  11
ENDBRANCH   7   8
ENDBRANCH   4   7
BRANCH   6  22
ATOM     22  N   UNL d   1       7.271   1.480 -15.550  0.00  0.00    -0.343 N 
ATOM     23  C   UNL d   1       6.886   1.260 -16.925  0.00  0.00     0.135 C 
ATOM     24  C   UNL d   1       6.438  -0.217 -17.099  0.00  0.00     0.241 C 
ATOM     25  N   UNL d   1       5.362  -0.539 -16.182  0.00  0.00     0.139 N 
ATOM     26  C   UNL d   1       5.973  -0.419 -18.562  0.00  0.00     0.035 C 
ATOM     27  C   UNL d   1       5.806  -0.341 -14.817  0.00  0.00     0.274 C 
ATOM     28  C   UNL d   1       4.961  -1.919 -16.333  0.00  0.00     0.250 C 
ATOM     29  C   UNL d   1       6.275   1.121 -14.563  0.00  0.00     0.137 C 
ATOM     30  C   UNL d   1       4.462  -2.215 -17.772  0.00  0.00     0.035 C 
ATOM     31  C   UNL d   1       5.540  -1.864 -18.799  0.00  0.00     0.004 C 
ENDBRANCH   6  22
BRANCH   1  32
ATOM     32  O   UNL d   1       9.671   0.650 -16.807  0.00  0.00    -0.327 OA
ATOM     33  C   UNL d   1      10.666  -0.348 -16.875  0.00  0.00     0.181 C 
ENDBRANCH   1  32
TORSDOF 5
