REMARK  3 active torsions:
REMARK  status: ('A' for Active; 'I' for Inactive)
REMARK    1  A    between atoms: N_5  and  C_6 
REMARK    2  A    between atoms: N_15  and  N_16 
REMARK       I    between atoms: N_16  and  C_17 
REMARK    3  A    between atoms: C_17  and  C_19 
ROOT
ATOM      1  C   UNL d   1      10.136   4.612 -18.387  0.00  0.00     0.142 C 
ATOM      2  N   UNL d   1       9.446   3.517 -18.312  0.00  0.00    -0.227 NA
ATOM      3  C   UNL d   1       9.780   2.391 -17.542  0.00  0.00     0.101 A 
ATOM      4  C   UNL d   1       9.403   1.148 -18.088  0.00  0.00     0.032 A 
ATOM      5  C   UNL d   1       9.607  -0.045 -17.376  0.00  0.00     0.059 A 
ATOM      6 CL   UNL d   1       9.180  -1.542 -18.107  0.00  0.00    -0.082 Cl
ATOM      7  C   UNL d   1      10.159  -0.013 -16.084  0.00  0.00     0.013 A 
ATOM      8  C   UNL d   1      10.538   1.217 -15.522  0.00  0.00     0.022 A 
ATOM      9  C   UNL d   1      10.356   2.418 -16.239  0.00  0.00     0.101 A 
ATOM     10  N   UNL d   1      10.817   3.605 -15.666  0.00  0.00    -0.225 N 
ATOM     11  C   UNL d   1      11.718   4.429 -16.357  0.00  0.00     0.086 A 
ATOM     12  C   UNL d   1      12.930   4.804 -15.737  0.00  0.00     0.019 A 
ATOM     13  C   UNL d   1      13.891   5.567 -16.436  0.00  0.00     0.002 A 
ATOM     14  C   UNL d   1      13.655   5.934 -17.767  0.00  0.00     0.000 A 
ATOM     15  C   UNL d   1      12.472   5.531 -18.403  0.00  0.00     0.004 A 
ATOM     16  C   UNL d   1      11.464   4.827 -17.697  0.00  0.00     0.051 A 
ENDROOT
BRANCH  10  17
ATOM     17  N   UNL d   1      10.483   3.903 -14.336  0.00  0.00    -0.123 NA
ATOM     18  C   UNL d   1       9.481   4.748 -14.022  0.00  0.00     0.295 C 
ATOM     19  O   UNL d   1       8.663   5.184 -14.825  0.00  0.00    -0.264 OA
BRANCH  18  20
ATOM     20  C   UNL d   1       9.474   5.229 -12.604  0.00  0.00     0.059 A 
ATOM     21  C   UNL d   1       9.462   4.309 -11.543  0.00  0.00     0.006 A 
ATOM     22  C   UNL d   1       9.435   4.754 -10.204  0.00  0.00     0.012 A 
ATOM     23  C   UNL d   1       9.442   6.126  -9.913  0.00  0.00     0.058 A 
ATOM     24  C   UNL d   1       9.456   7.057 -10.968  0.00  0.00     0.012 A 
ATOM     25 CL   UNL d   1       9.468   6.651  -8.265  0.00  0.00    -0.082 Cl
ATOM     26  C   UNL d   1       9.438   6.608 -12.304  0.00  0.00     0.006 A 
ENDBRANCH  18  20
ENDBRANCH  10  17
BRANCH   1  27
ATOM     27  N   UNL d   1       9.676   5.711 -19.124  0.00  0.00    -0.330 N 
ATOM     28  C   UNL d   1       9.836   7.109 -18.724  0.00  0.00     0.138 C 
ATOM     29  C   UNL d   1      10.468   7.939 -19.860  0.00  0.00     0.274 C 
ATOM     30  N   UNL d   1       9.620   7.847 -21.048  0.00  0.00     0.143 N 
ATOM     31  C   UNL d   1      10.232   8.628 -22.108  0.00  0.00     0.286 C 
ATOM     32  C   UNL d   1       9.529   6.443 -21.465  0.00  0.00     0.274 C 
ATOM     33  C   UNL d   1       8.887   5.596 -20.349  0.00  0.00     0.138 C 
ENDBRANCH   1  27
TORSDOF 3
