REMARK  5 active torsions:
REMARK  status: ('A' for Active; 'I' for Inactive)
REMARK    1  A    between atoms: C_2  and  C_3 
REMARK    2  A    between atoms: C_3  and  C_4 
REMARK    3  A    between atoms: C_4  and  C_5 
REMARK    4  A    between atoms: C_4  and  N_14 
REMARK    5  A    between atoms: C_5  and  C_7 
ROOT
ATOM      1  C   UNL d   1       8.793   4.893 -12.087  0.00  0.00     0.280 C 
ENDROOT
BRANCH   1   2
ATOM      2  C   UNL d   1       9.563   5.555 -10.886  0.00  0.00     0.041 C 
BRANCH   2   3
ATOM      3  C   UNL d   1       9.847   4.626  -9.730  0.00  0.00     0.003 C 
ATOM      4  C   UNL d   1       8.608   4.459  -8.868  0.00  0.00     0.000 C 
ENDBRANCH   2   3
ENDBRANCH   1   2
BRANCH   1   5
ATOM      5  C   UNL d   1       9.741   4.371 -13.220  0.00  0.00     0.204 C 
ATOM      6  O   UNL d   1      10.888   4.792 -13.342  0.00  0.00    -0.289 OA
BRANCH   5   7
ATOM      7  C   UNL d   1       9.248   3.351 -14.199  0.00  0.00     0.037 A 
ATOM      8  C   UNL d   1       7.919   2.855 -14.195  0.00  0.00     0.003 A 
ATOM      9  C   UNL d   1       7.512   1.906 -15.152  0.00  0.00     0.007 A 
ATOM     10  C   UNL d   1       8.416   1.445 -16.127  0.00  0.00     0.035 A 
ATOM     11  C   UNL d   1       9.738   1.929 -16.144  0.00  0.00     0.007 A 
ATOM     12 BR   UNL d   1       7.864   0.176 -17.427  0.00  0.00    -0.049 Br
ATOM     13  C   UNL d   1      10.143   2.875 -15.186  0.00  0.00     0.003 A 
ENDBRANCH   5   7
ENDBRANCH   1   5
BRANCH   1  14
ATOM     14  N   UNL d   1       7.756   5.813 -12.608  0.00  0.00     0.142 N 
ATOM     15  C   UNL d   1       6.480   5.702 -11.910  0.00  0.00     0.251 C 
ATOM     16  C   UNL d   1       5.697   6.922 -12.388  0.00  0.00     0.037 C 
ATOM     17  C   UNL d   1       6.727   7.935 -12.858  0.00  0.00     0.037 C 
ATOM     18  C   UNL d   1       8.052   7.250 -12.583  0.00  0.00     0.251 C 
ENDBRANCH   1  14
TORSDOF 5
