REMARK  10 active torsions:
REMARK  status: ('A' for Active; 'I' for Inactive)
REMARK    1  A    between atoms: C_2  and  O_3 
REMARK    2  A    between atoms: O_3  and  C_4 
REMARK    3  A    between atoms: C_9  and  N_10 
REMARK    4  A    between atoms: N_13  and  C_14 
REMARK    5  A    between atoms: C_14  and  C_15 
REMARK    6  A    between atoms: C_15  and  C_16 
REMARK    7  A    between atoms: C_16  and  C_17 
REMARK    8  A    between atoms: C_17  and  C_18 
REMARK    9  A    between atoms: C_18  and  C_19 
REMARK   10  A    between atoms: C_19  and  N_20 
ROOT
ATOM      1  C   UNL d   1      11.601   1.047 -17.152  0.00  0.00     0.002 C 
ENDROOT
BRANCH   1   2
ATOM      2  C   UNL d   1      10.775   2.232 -16.649  0.00  0.00     0.035 C 
BRANCH   2   3
ATOM      3  C   UNL d   1      10.509   2.110 -15.143  0.00  0.00     0.250 C 
BRANCH   3   4
ATOM      4  N   UNL d   1       9.753   3.253 -14.643  0.00  0.00     0.141 N 
ATOM      5  C   UNL d   1      10.649   4.393 -14.498  0.00  0.00     0.274 C 
ATOM      6  C   UNL d   1       9.837   5.556 -13.943  0.00  0.00     0.137 C 
ATOM      7  N   UNL d   1       9.254   5.256 -12.654  0.00  0.00    -0.343 N 
ATOM      8  C   UNL d   1       8.384   4.102 -12.731  0.00  0.00     0.137 C 
ATOM      9  C   UNL d   1       9.233   2.941 -13.307  0.00  0.00     0.274 C 
BRANCH   7  10
ATOM     10  C   UNL d   1       9.350   6.164 -11.560  0.00  0.00     0.079 A 
ATOM     11  C   UNL d   1       9.454   5.676 -10.236  0.00  0.00     0.109 A 
ATOM     12  C   UNL d   1       9.651   6.574  -9.153  0.00  0.00     0.026 A 
ATOM     13  C   UNL d   1       9.818   7.941  -9.386  0.00  0.00     0.002 A 
ATOM     14  C   UNL d   1       9.682   8.431 -10.697  0.00  0.00     0.002 A 
ATOM     15  C   UNL d   1       9.431   7.555 -11.777  0.00  0.00     0.019 A 
BRANCH  11  16
ATOM     16  O   UNL d   1       9.430   4.314 -10.098  0.00  0.00    -0.329 OA
BRANCH  16  17
ATOM     17  C   UNL d   1       9.702   3.699  -8.856  0.00  0.00     0.149 C 
ATOM     18  C   UNL d   1       8.400   3.293  -8.160  0.00  0.00     0.035 C 
ENDBRANCH  16  17
ENDBRANCH  11  16
ENDBRANCH   7  10
ENDBRANCH   3   4
ENDBRANCH   2   3
ENDBRANCH   1   2
BRANCH   1  19
ATOM     19  C   UNL d   1      11.912   1.203 -18.646  0.00  0.00     0.002 C 
BRANCH  19  20
ATOM     20  C   UNL d   1      12.838   0.103 -19.205  0.00  0.00     0.025 C 
BRANCH  20  21
ATOM     21  C   UNL d   1      13.168   0.263 -20.709  0.00  0.00     0.112 C 
BRANCH  21  22
ATOM     22  N   UNL d   1      14.152   1.335 -21.018  0.00  0.00    -0.264 N 
ATOM     23  C   UNL d   1      13.676   2.606 -21.099  0.00  0.00     0.263 C 
ATOM     24  C   UNL d   1      14.675   3.728 -21.292  0.00  0.00     0.056 A 
ATOM     25  O   UNL d   1      12.473   2.860 -20.998  0.00  0.00    -0.267 OA
ATOM     26  C   UNL d   1      14.279   5.083 -21.246  0.00  0.00     0.005 A 
ATOM     27  C   UNL d   1      16.044   3.461 -21.552  0.00  0.00     0.009 A 
ATOM     28  C   UNL d   1      15.174   6.136 -21.506  0.00  0.00     0.000 A 
ATOM     29  C   UNL d   1      16.515   5.843 -21.796  0.00  0.00     0.000 A 
ATOM     30  C   UNL d   1      16.974   4.509 -21.812  0.00  0.00     0.000 A 
ATOM     31  C   UNL d   1      18.314   4.173 -22.094  0.00  0.00     0.000 A 
ATOM     32  C   UNL d   1      18.726   2.831 -22.108  0.00  0.00     0.000 A 
ATOM     33  C   UNL d   1      17.798   1.816 -21.840  0.00  0.00     0.005 A 
ATOM     34  C   UNL d   1      16.442   2.102 -21.550  0.00  0.00     0.056 A 
ATOM     35  C   UNL d   1      15.454   1.000 -21.248  0.00  0.00     0.263 C 
ATOM     36  O   UNL d   1      15.855  -0.166 -21.238  0.00  0.00    -0.267 OA
ENDBRANCH  21  22
ENDBRANCH  20  21
ENDBRANCH  19  20
ENDBRANCH   1  19
TORSDOF 10
