REMARK  3 active torsions:
REMARK  status: ('A' for Active; 'I' for Inactive)
REMARK    1  A    between atoms: O_2  and  C_3 
REMARK    2  A    between atoms: N_11  and  C_12 
REMARK    3  A    between atoms: C_12  and  C_13 
ROOT
ATOM      1  C   UNL d   1       8.661   4.728 -12.902  0.00  0.00     0.094 A 
ATOM      2  C   UNL d   1       7.244   4.719 -12.837  0.00  0.00     0.026 A 
ATOM      3  C   UNL d   1       6.510   3.684 -13.444  0.00  0.00     0.026 A 
ATOM      4  C   UNL d   1       7.170   2.645 -14.126  0.00  0.00     0.090 A 
ATOM      5  C   UNL d   1       8.586   2.628 -14.168  0.00  0.00     0.004 A 
ATOM      6  C   UNL d   1       9.316   3.672 -13.569  0.00  0.00     0.022 A 
ATOM      7  C   UNL d   1       9.313   1.447 -14.799  0.00  0.00     0.062 C 
ATOM      8  C   UNL d   1      10.314   1.851 -15.871  0.00  0.00     0.255 C 
ATOM      9  N   UNL d   1      10.498   0.606 -16.609  0.00  0.00     0.142 N 
ATOM     10  C   UNL d   1       9.154   0.053 -16.773  0.00  0.00     0.254 C 
ATOM     11  C   UNL d   1       8.394   0.444 -15.499  0.00  0.00     0.070 C 
ATOM     12  C   UNL d   1       7.019   1.040 -15.836  0.00  0.00     0.151 C 
ATOM     13  O   UNL d   1       6.420   1.652 -14.707  0.00  0.00    -0.331 OA
ENDROOT
BRANCH   9  14
ATOM     14  C   UNL d   1      11.261   0.755 -17.852  0.00  0.00     0.277 C 
BRANCH  14  15
ATOM     15  C   UNL d   1      10.827   1.924 -18.735  0.00  0.00     0.011 A 
ATOM     16  C   UNL d   1       9.679   1.836 -19.553  0.00  0.00    -0.002 A 
ATOM     17  C   UNL d   1       9.227   2.962 -20.264  0.00  0.00    -0.000 A 
ATOM     18  C   UNL d   1       9.942   4.174 -20.205  0.00  0.00    -0.000 A 
ATOM     19  C   UNL d   1      11.104   4.264 -19.413  0.00  0.00    -0.000 A 
ATOM     20  C   UNL d   1      11.538   3.144 -18.671  0.00  0.00    -0.002 A 
ENDBRANCH  14  15
ENDBRANCH   9  14
BRANCH   1  21
ATOM     21  O   UNL d   1       9.459   5.698 -12.339  0.00  0.00    -0.328 OA
ATOM     22  C   UNL d   1       8.822   6.760 -11.638  0.00  0.00     0.181 C 
ENDBRANCH   1  21
TORSDOF 3
