REMARK  15 active torsions:
REMARK  status: ('A' for Active; 'I' for Inactive)
REMARK    1  A    between atoms: N_2  and  C_3 
REMARK    2  A    between atoms: N_14  and  C_15 
REMARK    3  A    between atoms: C_15  and  C_16 
REMARK    4  A    between atoms: C_16  and  O_17 
REMARK    5  A    between atoms: O_17  and  C_18 
REMARK    6  A    between atoms: C_18  and  C_19 
REMARK    7  A    between atoms: C_19  and  O_20 
REMARK    8  A    between atoms: O_20  and  C_21 
REMARK    9  A    between atoms: C_21  and  C_22 
REMARK   10  A    between atoms: C_22  and  O_23 
REMARK   11  A    between atoms: O_23  and  C_24 
REMARK   12  A    between atoms: C_24  and  C_25 
REMARK   13  A    between atoms: C_25  and  C_26 
REMARK   14  A    between atoms: C_26  and  C_27 
REMARK   15  A    between atoms: C_27  and  C_28 
ROOT
ATOM      1  C   UNL d   1       5.630   2.076 -13.599  0.00  0.00     0.167 C 
ENDROOT
BRANCH   1   2
ATOM      2  C   UNL d   1       6.677   0.986 -13.816  0.00  0.00     0.143 C 
BRANCH   2   3
ATOM      3  N   UNL d   1       6.403   0.196 -15.023  0.00  0.00    -0.278 N 
ATOM      4  C   UNL d   1       7.136   0.238 -16.224  0.00  0.00     0.080 A 
ATOM      5  C   UNL d   1       8.257   0.959 -16.676  0.00  0.00     0.019 A 
ATOM      6  C   UNL d   1       6.572  -0.667 -17.096  0.00  0.00     0.076 A 
ATOM      7  C   UNL d   1       8.736   0.714 -17.994  0.00  0.00     0.001 A 
ATOM      8  C   UNL d   1       8.119  -0.246 -18.846  0.00  0.00    -0.003 A 
ATOM      9  C   UNL d   1       6.998  -0.970 -18.388  0.00  0.00    -0.003 A 
ATOM     10  C   UNL d   1       6.212  -2.059 -19.087  0.00  0.00     0.066 C 
ATOM     11  C   UNL d   1       4.746  -2.168 -18.595  0.00  0.00     0.283 C 
ATOM     12  C   UNL d   1       4.669  -2.270 -17.046  0.00  0.00     0.147 C 
ATOM     13  N   UNL d   1       5.493  -1.243 -16.422  0.00  0.00    -0.278 N 
ATOM     14  C   UNL d   1       5.413  -0.725 -15.171  0.00  0.00     0.332 A 
ATOM     15  O   UNL d   1       4.576  -1.009 -14.304  0.00  0.00    -0.246 OA
BRANCH  11  16
ATOM     16  N   UNL d   1       4.083  -3.316 -19.212  0.00  0.00     0.342 N 
ATOM     17  C   UNL d   1       3.861  -3.128 -20.642  0.00  0.00     0.328 C 
ENDBRANCH  11  16
ENDBRANCH   2   3
ENDBRANCH   1   2
BRANCH   1  18
ATOM     18  O   UNL d   1       5.825   2.775 -12.377  0.00  0.00    -0.349 OA
BRANCH  18  19
ATOM     19  C   UNL d   1       5.156   4.032 -12.320  0.00  0.00     0.174 C 
BRANCH  19  20
ATOM     20  C   UNL d   1       5.941   5.119 -13.059  0.00  0.00     0.174 C 
BRANCH  20  21
ATOM     21  O   UNL d   1       7.070   5.555 -12.332  0.00  0.00    -0.349 OA
BRANCH  21  22
ATOM     22  C   UNL d   1       8.153   4.644 -12.370  0.00  0.00     0.174 C 
BRANCH  22  23
ATOM     23  C   UNL d   1       9.123   5.000 -11.258  0.00  0.00     0.174 C 
BRANCH  23  24
ATOM     24  O   UNL d   1       8.471   4.771 -10.020  0.00  0.00    -0.352 OA
BRANCH  24  25
ATOM     25  C   UNL d   1       9.321   4.873  -8.897  0.00  0.00     0.142 C 
BRANCH  25  26
ATOM     26  C   UNL d   1       9.552   6.353  -8.564  0.00  0.00     0.033 C 
BRANCH  26  27
ATOM     27  C   UNL d   1      10.294   6.517  -7.246  0.00  0.00     0.007 C 
BRANCH  27  28
ATOM     28  C   UNL d   1      10.482   7.983  -6.824  0.00  0.00     0.026 C 
BRANCH  28  29
ATOM     29  C   UNL d   1      11.068   8.143  -5.428  0.00  0.00    -0.022 A 
ATOM     30  C   UNL d   1      11.475   7.020  -4.664  0.00  0.00    -0.004 A 
ATOM     31  C   UNL d   1      12.019   7.182  -3.381  0.00  0.00    -0.000 A 
ATOM     32  C   UNL d   1      12.166   8.465  -2.837  0.00  0.00    -0.000 A 
ATOM     33  C   UNL d   1      11.756   9.590  -3.582  0.00  0.00    -0.000 A 
ATOM     34  C   UNL d   1      11.210   9.434  -4.875  0.00  0.00    -0.004 A 
ENDBRANCH  28  29
ENDBRANCH  27  28
ENDBRANCH  26  27
ENDBRANCH  25  26
ENDBRANCH  24  25
ENDBRANCH  23  24
ENDBRANCH  22  23
ENDBRANCH  21  22
ENDBRANCH  20  21
ENDBRANCH  19  20
ENDBRANCH  18  19
ENDBRANCH   1  18
TORSDOF 15
