REMARK  8 active torsions:
REMARK  status: ('A' for Active; 'I' for Inactive)
REMARK    1  A    between atoms: O_2  and  C_3 
REMARK    2  A    between atoms: C_8  and  N_9 
REMARK    3  A    between atoms: N_12  and  C_13 
REMARK    4  A    between atoms: C_13  and  C_14 
REMARK    5  A    between atoms: C_14  and  C_15 
REMARK    6  A    between atoms: C_15  and  C_16 
REMARK    7  A    between atoms: C_16  and  N_17 
REMARK    8  A    between atoms: C_22  and  C_23 
ROOT
ATOM      1  C   UNL d   1       8.668   5.751 -12.246  0.00  0.00     0.104 C 
ENDROOT
BRANCH   1   2
ATOM      2  C   UNL d   1       9.856   5.580 -13.206  0.00  0.00     0.026 C 
BRANCH   2   3
ATOM      3  C   UNL d   1       9.437   4.822 -14.453  0.00  0.00     0.037 C 
BRANCH   3   4
ATOM      4  C   UNL d   1      10.612   4.573 -15.436  0.00  0.00     0.251 C 
BRANCH   4   5
ATOM      5  N   UNL d   1      10.352   3.519 -16.422  0.00  0.00     0.141 N 
ATOM      6  C   UNL d   1       9.645   2.374 -15.826  0.00  0.00     0.274 C 
ATOM      7  C   UNL d   1       9.485   1.222 -16.824  0.00  0.00     0.137 C 
ATOM      8  N   UNL d   1       8.781   1.729 -17.995  0.00  0.00    -0.343 N 
ATOM      9  C   UNL d   1       9.383   2.895 -18.626  0.00  0.00     0.137 C 
ATOM     10  C   UNL d   1       9.616   4.019 -17.586  0.00  0.00     0.274 C 
BRANCH   8  11
ATOM     11  C   UNL d   1       7.559   1.173 -18.460  0.00  0.00     0.079 A 
ATOM     12  C   UNL d   1       6.527   0.778 -17.575  0.00  0.00     0.110 A 
ATOM     13  C   UNL d   1       5.356   0.165 -18.104  0.00  0.00     0.026 A 
ATOM     14  C   UNL d   1       5.197   0.003 -19.494  0.00  0.00     0.002 A 
ATOM     15  C   UNL d   1       6.208   0.432 -20.369  0.00  0.00     0.002 A 
ATOM     16  C   UNL d   1       7.385   1.015 -19.849  0.00  0.00     0.019 A 
BRANCH  12  17
ATOM     17  O   UNL d   1       6.671   1.042 -16.225  0.00  0.00    -0.327 OA
ATOM     18  C   UNL d   1       5.827   0.372 -15.301  0.00  0.00     0.181 C 
ENDBRANCH  12  17
ENDBRANCH   8  11
ENDBRANCH   4   5
ENDBRANCH   3   4
ENDBRANCH   2   3
ENDBRANCH   1   2
BRANCH   1  19
ATOM     19  N   UNL d   1       9.126   6.045 -10.887  0.00  0.00    -0.316 N 
ATOM     20  C   UNL d   1       9.693   7.231 -10.573  0.00  0.00     0.257 C 
ATOM     21  C   UNL d   1      10.172   7.422  -9.175  0.00  0.00     0.052 A 
ATOM     22  O   UNL d   1       9.850   8.159 -11.383  0.00  0.00    -0.267 OA
ATOM     23  C   UNL d   1       9.716   6.574  -8.143  0.00  0.00    -0.016 A 
ATOM     24  C   UNL d   1      11.037   8.488  -8.867  0.00  0.00     0.004 A 
ATOM     25  C   UNL d   1       8.775   5.443  -8.482  0.00  0.00     0.051 C 
ATOM     26  C   UNL d   1      10.122   6.807  -6.819  0.00  0.00    -0.004 A 
ATOM     27  C   UNL d   1       8.965   4.942  -9.917  0.00  0.00     0.109 C 
ATOM     28  C   UNL d   1      10.991   7.874  -6.504  0.00  0.00    -0.000 A 
ATOM     29  C   UNL d   1      11.441   8.712  -7.546  0.00  0.00     0.000 A 
BRANCH  28  30
ATOM     30  C   UNL d   1      11.426   8.110  -5.118  0.00  0.00     0.003 A 
ATOM     31  C   UNL d   1      11.821   7.043  -4.283  0.00  0.00     0.021 A 
ATOM     32  C   UNL d   1      12.236   7.316  -2.965  0.00  0.00     0.099 A 
ATOM     33  N   UNL d   1      12.262   8.561  -2.448  0.00  0.00    -0.242 NA
ATOM     34  C   UNL d   1      11.865   9.581  -3.237  0.00  0.00     0.099 A 
ATOM     35  C   UNL d   1      11.456   9.409  -4.573  0.00  0.00     0.021 A 
ENDBRANCH  28  30
ENDBRANCH   1  19
TORSDOF 8
