REMARK  11 active torsions:
REMARK  status: ('A' for Active; 'I' for Inactive)
REMARK    1  A    between atoms: C_2  and  C_3 
REMARK    2  A    between atoms: C_3  and  N_4 
REMARK    3  A    between atoms: N_4  and  C_5 
REMARK    4  A    between atoms: N_4  and  C_22 
REMARK    5  A    between atoms: C_5  and  C_6 
REMARK    6  A    between atoms: C_6  and  C_7 
REMARK    7  A    between atoms: C_7  and  C_8 
REMARK    8  A    between atoms: C_8  and  N_9 
REMARK       I    between atoms: N_9  and  C_10 
REMARK    9  A    between atoms: C_10  and  C_12 
REMARK   10  A    between atoms: C_22  and  C_23 
REMARK   11  A    between atoms: C_25  and  C_26 
ROOT
ATOM      1  C   UNL d   1       9.099   3.294 -14.664  0.00  0.00     0.250 C 
ENDROOT
BRANCH   1   2
ATOM      2  N   UNL d   1      10.479   3.481 -15.068  0.00  0.00     0.137 N 
BRANCH   2   3
ATOM      3  C   UNL d   1      10.985   2.281 -15.756  0.00  0.00     0.250 C 
BRANCH   3   4
ATOM      4  C   UNL d   1      10.754   0.957 -14.996  0.00  0.00     0.035 C 
ATOM      5  C   UNL d   1       9.319   0.374 -15.098  0.00  0.00     0.002 C 
ENDBRANCH   3   4
ENDBRANCH   2   3
BRANCH   2   6
ATOM      6  C   UNL d   1      10.532   4.658 -15.918  0.00  0.00     0.251 C 
BRANCH   6   7
ATOM      7  C   UNL d   1      11.854   4.801 -16.616  0.00  0.00     0.038 A 
ATOM      8  C   UNL d   1      11.981   5.668 -17.834  0.00  0.00     0.024 A 
ATOM      9  C   UNL d   1      12.047   4.165 -17.979  0.00  0.00     0.007 A 
BRANCH   8  10
ATOM     10  C   UNL d   1      13.201   6.495 -18.032  0.00  0.00    -0.022 A 
ATOM     11  C   UNL d   1      14.464   5.982 -17.688  0.00  0.00    -0.002 A 
ATOM     12  C   UNL d   1      15.623   6.741 -17.900  0.00  0.00     0.029 A 
ATOM     13  C   UNL d   1      15.523   8.022 -18.457  0.00  0.00     0.140 A 
ATOM     14  C   UNL d   1      14.259   8.553 -18.787  0.00  0.00     0.029 A 
ATOM     15  F   UNL d   1      16.640   8.761 -18.631  0.00  0.00    -0.204 F 
ATOM     16  C   UNL d   1      13.096   7.790 -18.581  0.00  0.00    -0.002 A 
ENDBRANCH   8  10
ENDBRANCH   6   7
ENDBRANCH   2   6
ENDBRANCH   1   2
BRANCH   1  17
ATOM     17  C   UNL d   1       8.373   4.428 -14.032  0.00  0.00     0.037 C 
BRANCH  17  18
ATOM     18  C   UNL d   1       9.057   4.750 -12.689  0.00  0.00     0.029 C 
BRANCH  18  19
ATOM     19  C   UNL d   1       8.231   5.726 -11.867  0.00  0.00     0.129 C 
BRANCH  19  20
ATOM     20  N   UNL d   1       9.067   6.364 -10.880  0.00  0.00    -0.234 NA
ATOM     21  C   UNL d   1       9.353   5.898  -9.663  0.00  0.00     0.275 C 
ATOM     22  O   UNL d   1       9.056   4.763  -9.282  0.00  0.00    -0.266 OA
BRANCH  21  23
ATOM     23  C   UNL d   1      10.041   6.874  -8.751  0.00  0.00     0.058 A 
ATOM     24  C   UNL d   1      10.236   6.549  -7.385  0.00  0.00     0.005 A 
ATOM     25  C   UNL d   1      10.874   7.457  -6.508  0.00  0.00     0.000 A 
ATOM     26  C   UNL d   1      11.314   8.710  -6.991  0.00  0.00     0.000 A 
ATOM     27  C   UNL d   1      11.063   7.121  -5.152  0.00  0.00     0.000 A 
ATOM     28  C   UNL d   1      11.129   9.029  -8.348  0.00  0.00     0.000 A 
ATOM     29  C   UNL d   1      11.931   9.618  -6.116  0.00  0.00     0.000 A 
ATOM     30  C   UNL d   1      10.504   8.126  -9.222  0.00  0.00     0.005 A 
ATOM     31  C   UNL d   1      12.124   9.281  -4.764  0.00  0.00     0.000 A 
ATOM     32  C   UNL d   1      11.692   8.031  -4.283  0.00  0.00     0.000 A 
ENDBRANCH  21  23
ENDBRANCH  19  20
ENDBRANCH  18  19
ENDBRANCH  17  18
ENDBRANCH   1  17
TORSDOF 11
