REMARK  2 active torsions:
REMARK  status: ('A' for Active; 'I' for Inactive)
REMARK    1  A    between atoms: C_2  and  C_3 
REMARK    2  A    between atoms: C_3  and  N_4 
ROOT
ATOM      1  N   UNL d   1       9.313   4.970 -13.096  0.00  0.00     0.140 N 
ATOM      2  C   UNL d   1      10.637   4.397 -13.331  0.00  0.00     0.282 C 
ATOM      3  C   UNL d   1      10.731   3.530 -14.597  0.00  0.00     0.178 C 
ATOM      4  O   UNL d   1       9.750   2.505 -14.532  0.00  0.00    -0.348 OA
ATOM      5  C   UNL d   1       8.426   3.026 -14.387  0.00  0.00     0.169 C 
ATOM      6  C   UNL d   1       7.388   1.936 -14.440  0.00  0.00     0.009 C 
ATOM      7  C   UNL d   1       7.428   0.813 -15.315  0.00  0.00     0.005 C 
ATOM      8  C   UNL d   1       6.363  -0.031 -15.153  0.00  0.00     0.035 C 
ATOM      9  S   UNL d   1       5.333   0.487 -13.841  0.00  0.00    -0.091 SA
ATOM     10  C   UNL d   1       6.258   1.958 -13.656  0.00  0.00     0.006 C 
ATOM     11  C   UNL d   1       5.912   3.036 -12.675  0.00  0.00     0.035 C 
ATOM     12  C   UNL d   1       6.871   4.240 -12.783  0.00  0.00     0.041 C 
ATOM     13  C   UNL d   1       8.352   3.853 -13.067  0.00  0.00     0.251 C 
ENDROOT
BRANCH   1  14
ATOM     14  C   UNL d   1       9.296   5.801 -11.874  0.00  0.00     0.250 C 
BRANCH  14  15
ATOM     15  C   UNL d   1       8.984   7.282 -12.132  0.00  0.00     0.035 C 
ATOM     16  C   UNL d   1       7.574   7.522 -12.672  0.00  0.00     0.002 C 
ENDBRANCH  14  15
ENDBRANCH   1  14
TORSDOF 2
