REMARK  8 active torsions:
REMARK  status: ('A' for Active; 'I' for Inactive)
REMARK    1  A    between atoms: O_2  and  C_3 
REMARK    2  A    between atoms: N_13  and  C_14 
REMARK    3  A    between atoms: C_14  and  C_15 
REMARK    4  A    between atoms: C_15  and  C_16 
REMARK    5  A    between atoms: C_16  and  C_17 
REMARK    6  A    between atoms: C_17  and  N_18 
REMARK       I    between atoms: N_18  and  C_19 
REMARK    7  A    between atoms: C_19  and  C_21 
REMARK    8  A    between atoms: C_24  and  N_25 
ROOT
ATOM      1  C   UNL d   1       5.081  -0.889 -18.334  0.00  0.00     0.094 A 
ATOM      2  C   UNL d   1       4.572  -1.411 -17.121  0.00  0.00     0.026 A 
ATOM      3  C   UNL d   1       5.200  -1.100 -15.897  0.00  0.00     0.026 A 
ATOM      4  C   UNL d   1       6.343  -0.277 -15.866  0.00  0.00     0.092 A 
ATOM      5  C   UNL d   1       6.842   0.257 -17.080  0.00  0.00     0.031 A 
ATOM      6  C   UNL d   1       6.206  -0.046 -18.298  0.00  0.00     0.024 A 
ATOM      7  C   UNL d   1       8.085   1.123 -17.079  0.00  0.00     0.173 C 
ATOM      8  O   UNL d   1       7.996   2.210 -18.002  0.00  0.00    -0.348 OA
ATOM      9  C   UNL d   1       9.199   2.969 -18.065  0.00  0.00     0.178 C 
ATOM     10  C   UNL d   1       9.557   3.508 -16.670  0.00  0.00     0.282 C 
ATOM     11  N   UNL d   1       9.600   2.458 -15.654  0.00  0.00     0.143 N 
ATOM     12  C   UNL d   1       8.355   1.680 -15.675  0.00  0.00     0.280 C 
ATOM     13  C   UNL d   1       8.258   0.518 -14.664  0.00  0.00     0.185 C 
ATOM     14  O   UNL d   1       6.936  -0.019 -14.646  0.00  0.00    -0.329 OA
ENDROOT
BRANCH  11  15
ATOM     15  C   UNL d   1       9.951   2.990 -14.335  0.00  0.00     0.251 C 
BRANCH  15  16
ATOM     16  C   UNL d   1       8.840   3.790 -13.623  0.00  0.00     0.037 C 
BRANCH  16  17
ATOM     17  C   UNL d   1       9.332   4.486 -12.361  0.00  0.00     0.029 C 
BRANCH  17  18
ATOM     18  C   UNL d   1       8.167   5.092 -11.561  0.00  0.00     0.129 C 
BRANCH  18  19
ATOM     19  N   UNL d   1       8.659   5.990 -10.531  0.00  0.00    -0.234 NA
ATOM     20  C   UNL d   1       9.255   5.619  -9.394  0.00  0.00     0.275 C 
ATOM     21  O   UNL d   1       9.425   4.451  -9.049  0.00  0.00    -0.266 OA
BRANCH  20  22
ATOM     22  C   UNL d   1       9.731   6.750  -8.538  0.00  0.00     0.058 A 
ATOM     23  C   UNL d   1      10.544   7.776  -9.063  0.00  0.00     0.006 A 
ATOM     24  C   UNL d   1      11.014   8.806  -8.221  0.00  0.00     0.024 A 
ATOM     25  C   UNL d   1      10.665   8.831  -6.851  0.00  0.00     0.127 A 
ATOM     26  C   UNL d   1       9.858   7.793  -6.338  0.00  0.00     0.024 A 
ATOM     27  C   UNL d   1       9.384   6.770  -7.175  0.00  0.00     0.006 A 
BRANCH  25  28
ATOM     28  N   UNL d   1      11.123   9.929  -5.969  0.00  0.00    -0.114 N 
ATOM     29  O   UNL d   1      10.736   9.946  -4.805  0.00  0.00    -0.532 OA
ATOM     30  O   UNL d   1      11.862  10.787  -6.436  0.00  0.00    -0.532 OA
ENDBRANCH  25  28
ENDBRANCH  20  22
ENDBRANCH  18  19
ENDBRANCH  17  18
ENDBRANCH  16  17
ENDBRANCH  15  16
ENDBRANCH  11  15
BRANCH   1  31
ATOM     31  O   UNL d   1       4.533  -1.135 -19.571  0.00  0.00    -0.328 OA
ATOM     32  C   UNL d   1       3.850  -2.364 -19.745  0.00  0.00     0.181 C 
ENDBRANCH   1  31
TORSDOF 8
