REMARK  10 active torsions:
REMARK  status: ('A' for Active; 'I' for Inactive)
REMARK    1  A    between atoms: O_2  and  C_3 
REMARK    2  A    between atoms: N_13  and  C_14 
REMARK    3  A    between atoms: C_14  and  C_15 
REMARK    4  A    between atoms: C_15  and  C_16 
REMARK    5  A    between atoms: C_16  and  C_17 
REMARK    6  A    between atoms: C_17  and  N_18 
REMARK       I    between atoms: N_18  and  C_19 
REMARK    7  A    between atoms: C_19  and  C_21 
REMARK    8  A    between atoms: C_23  and  O_24 
REMARK    9  A    between atoms: C_26  and  O_27 
REMARK   10  A    between atoms: C_29  and  O_30 
ROOT
ATOM      1  C   UNL d   1       7.438   1.788 -16.034  0.00  0.00     0.037 C 
ENDROOT
BRANCH   1   2
ATOM      2  C   UNL d   1       7.684   2.096 -14.547  0.00  0.00     0.251 C 
BRANCH   2   3
ATOM      3  N   UNL d   1       8.333   3.404 -14.354  0.00  0.00     0.143 N 
ATOM      4  C   UNL d   1       9.700   3.453 -14.919  0.00  0.00     0.282 C 
ATOM      5  C   UNL d   1      10.406   4.802 -14.704  0.00  0.00     0.178 C 
ATOM      6  O   UNL d   1      10.415   5.135 -13.321  0.00  0.00    -0.348 OA
ATOM      7  C   UNL d   1       9.098   5.168 -12.771  0.00  0.00     0.173 C 
ATOM      8  C   UNL d   1       9.081   5.572 -11.312  0.00  0.00     0.031 A 
ATOM      9  C   UNL d   1       8.424   3.789 -12.943  0.00  0.00     0.280 C 
ATOM     10  C   UNL d   1       8.233   4.949 -10.397  0.00  0.00     0.092 A 
ATOM     11  C   UNL d   1       9.901   6.622 -10.882  0.00  0.00     0.024 A 
ATOM     12  C   UNL d   1       8.328   5.350  -9.028  0.00  0.00     0.026 A 
ATOM     13  O   UNL d   1       7.345   3.995 -10.797  0.00  0.00    -0.329 OA
ATOM     14  C   UNL d   1       9.201   6.393  -8.604  0.00  0.00     0.026 A 
ATOM     15  C   UNL d   1      10.008   7.013  -9.538  0.00  0.00     0.094 A 
ATOM     16  C   UNL d   1       7.080   3.866 -12.186  0.00  0.00     0.185 C 
BRANCH  15  17
ATOM     17  O   UNL d   1      10.897   7.973  -9.103  0.00  0.00    -0.328 OA
ATOM     18  C   UNL d   1      11.879   8.399 -10.042  0.00  0.00     0.181 C 
ENDBRANCH  15  17
ENDBRANCH   2   3
ENDBRANCH   1   2
BRANCH   1  19
ATOM     19  C   UNL d   1       6.730   0.454 -16.286  0.00  0.00     0.029 C 
BRANCH  19  20
ATOM     20  C   UNL d   1       6.585   0.169 -17.798  0.00  0.00     0.129 C 
BRANCH  20  21
ATOM     21  N   UNL d   1       7.840   0.106 -18.558  0.00  0.00    -0.234 NA
ATOM     22  C   UNL d   1       8.576   1.175 -18.902  0.00  0.00     0.275 C 
ATOM     23  O   UNL d   1       8.206   2.334 -18.703  0.00  0.00    -0.266 OA
BRANCH  22  24
ATOM     24  C   UNL d   1       9.958   0.861 -19.413  0.00  0.00     0.062 A 
ATOM     25  C   UNL d   1      11.098   1.510 -18.893  0.00  0.00     0.031 A 
ATOM     26  C   UNL d   1      12.392   1.252 -19.417  0.00  0.00     0.118 A 
ATOM     27  C   UNL d   1      12.525   0.315 -20.475  0.00  0.00     0.138 A 
ATOM     28  C   UNL d   1      11.392  -0.354 -21.005  0.00  0.00     0.118 A 
ATOM     29  C   UNL d   1      10.117  -0.088 -20.443  0.00  0.00     0.031 A 
BRANCH  26  30
ATOM     30  O   UNL d   1      13.547   1.877 -18.985  0.00  0.00    -0.326 OA
ATOM     31  C   UNL d   1      13.454   2.866 -17.969  0.00  0.00     0.181 C 
ENDBRANCH  26  30
BRANCH  27  32
ATOM     32  O   UNL d   1      13.770   0.092 -20.993  0.00  0.00    -0.324 OA
ATOM     33  C   UNL d   1      14.308  -1.160 -20.602  0.00  0.00     0.182 C 
ENDBRANCH  27  32
BRANCH  28  34
ATOM     34  O   UNL d   1      11.582  -1.203 -22.085  0.00  0.00    -0.326 OA
ATOM     35  C   UNL d   1      10.424  -1.808 -22.646  0.00  0.00     0.181 C 
ENDBRANCH  28  34
ENDBRANCH  22  24
ENDBRANCH  20  21
ENDBRANCH  19  20
ENDBRANCH   1  19
TORSDOF 10
