REMARK  9 active torsions:
REMARK  status: ('A' for Active; 'I' for Inactive)
REMARK    1  A    between atoms: C_2  and  O_4 
REMARK    2  A    between atoms: O_4  and  C_5 
REMARK    3  A    between atoms: C_10  and  N_11 
REMARK    4  A    between atoms: N_15  and  C_16 
REMARK    5  A    between atoms: C_16  and  C_17 
REMARK    6  A    between atoms: C_17  and  C_18 
REMARK    7  A    between atoms: C_18  and  C_19 
REMARK    8  A    between atoms: C_19  and  O_20 
REMARK    9  A    between atoms: O_20  and  C_21 
ROOT
ATOM      1  N   UNL d   1       6.529   3.956 -12.708  0.00  0.00    -0.345 N 
ATOM      2  C   UNL d   1       6.456   5.147 -13.526  0.00  0.00     0.104 C 
ATOM      3  C   UNL d   1       7.025   6.425 -12.802  0.00  0.00     0.059 C 
ATOM      4  C   UNL d   1       8.488   6.288 -12.375  0.00  0.00     0.252 C 
ATOM      5  N   UNL d   1       8.579   5.810 -11.003  0.00  0.00     0.139 N 
ATOM      6  C   UNL d   1       8.281   4.393 -10.961  0.00  0.00     0.274 C 
ATOM      7  C   UNL d   1       6.824   4.028 -11.291  0.00  0.00     0.137 C 
ENDROOT
BRANCH   5   8
ATOM      8  C   UNL d   1       9.948   5.983 -10.555  0.00  0.00     0.250 C 
BRANCH   8   9
ATOM      9  C   UNL d   1      10.228   7.433 -10.184  0.00  0.00     0.038 C 
BRANCH   9  10
ATOM     10  C   UNL d   1      11.684   7.659  -9.799  0.00  0.00     0.035 C 
BRANCH  10  11
ATOM     11  C   UNL d   1      11.950   9.106  -9.361  0.00  0.00     0.149 C 
BRANCH  11  12
ATOM     12  O   UNL d   1      11.248   9.661  -8.235  0.00  0.00    -0.331 OA
BRANCH  12  13
ATOM     13  C   UNL d   1      11.264   8.903  -7.044  0.00  0.00     0.096 A 
ATOM     14  C   UNL d   1      11.777   9.516  -5.878  0.00  0.00     0.043 A 
ATOM     15  C   UNL d   1      11.841   8.749  -4.677  0.00  0.00     0.087 A 
ATOM     16  C   UNL d   1      11.458   7.386  -4.681  0.00  0.00     0.018 A 
ATOM     17  N   UNL d   1      12.231   9.304  -3.445  0.00  0.00    -0.208 NA
ATOM     18  C   UNL d   1      10.948   6.822  -5.839  0.00  0.00     0.004 A 
ATOM     19  C   UNL d   1      11.523   6.647  -3.458  0.00  0.00     0.006 A 
ATOM     20  C   UNL d   1      10.824   7.575  -6.997  0.00  0.00     0.024 A 
ATOM     21  C   UNL d   1      11.901   7.225  -2.325  0.00  0.00     0.063 A 
ATOM     22  C   UNL d   1      12.287   8.627  -2.291  0.00  0.00     0.279 A 
ATOM     23  O   UNL d   1      12.691   9.168  -1.276  0.00  0.00    -0.265 OA
ENDBRANCH  12  13
ENDBRANCH  11  12
ENDBRANCH  10  11
ENDBRANCH   9  10
ENDBRANCH   8   9
ENDBRANCH   5   8
BRANCH   1  24
ATOM     24  C   UNL d   1       6.567   2.766 -13.428  0.00  0.00     0.079 A 
ATOM     25  C   UNL d   1       7.651   2.438 -14.287  0.00  0.00     0.109 A 
ATOM     26  C   UNL d   1       7.671   1.154 -14.903  0.00  0.00     0.026 A 
ATOM     27  C   UNL d   1       6.650   0.227 -14.688  0.00  0.00     0.002 A 
ATOM     28  C   UNL d   1       5.579   0.546 -13.825  0.00  0.00     0.002 A 
ATOM     29  C   UNL d   1       5.550   1.812 -13.203  0.00  0.00     0.019 A 
BRANCH  25  30
ATOM     30  O   UNL d   1       8.674   3.365 -14.418  0.00  0.00    -0.332 OA
BRANCH  30  31
ATOM     31  C   UNL d   1       9.794   3.101 -15.266  0.00  0.00     0.122 C 
ATOM     32  C   UNL d   1       9.375   2.941 -16.765  0.00  0.00     0.033 C 
ATOM     33  C   UNL d   1      10.690   1.979 -14.650  0.00  0.00     0.033 C 
ENDBRANCH  30  31
ENDBRANCH  25  30
ENDBRANCH   1  24
TORSDOF 9
