REMARK  6 active torsions:
REMARK  status: ('A' for Active; 'I' for Inactive)
REMARK    1  A    between atoms: S_2  and  C_5 
REMARK    2  A    between atoms: C_8  and  C_9 
REMARK    3  A    between atoms: C_9  and  S_10 
REMARK    4  A    between atoms: S_10  and  C_11 
REMARK    5  A    between atoms: N_19  and  C_20 
REMARK    6  A    between atoms: C_20  and  C_21 
ROOT
ATOM      1  C   UNL d   1       9.618   3.669 -15.278  0.00  0.00     0.172 A 
ATOM      2  N   UNL d   1       9.684   4.809 -15.959  0.00  0.00    -0.221 NA
ATOM      3  C   UNL d   1       9.588   4.392 -17.267  0.00  0.00     0.099 A 
ATOM      4  C   UNL d   1       9.543   5.148 -18.456  0.00  0.00     0.021 A 
ATOM      5  C   UNL d   1       9.446   4.508 -19.708  0.00  0.00     0.002 A 
ATOM      6  C   UNL d   1       9.386   3.097 -19.781  0.00  0.00     0.002 A 
ATOM      7  C   UNL d   1       9.417   2.321 -18.602  0.00  0.00     0.019 A 
ATOM      8  C   UNL d   1       9.505   2.974 -17.354  0.00  0.00     0.080 A 
ATOM      9  N   UNL d   1       9.533   2.541 -16.028  0.00  0.00    -0.303 N 
ENDROOT
BRANCH   1  10
ATOM     10  S   UNL d   1       9.646   3.651 -13.519  0.00  0.00    -0.072 SA
BRANCH  10  11
ATOM     11  C   UNL d   1       8.595   5.107 -13.168  0.00  0.00     0.091 C 
BRANCH  11  12
ATOM     12  C   UNL d   1       9.039   5.765 -11.878  0.00  0.00    -0.011 A 
ATOM     13  C   UNL d   1       9.047   5.032 -10.675  0.00  0.00    -0.003 A 
ATOM     14  C   UNL d   1       9.453   5.642  -9.472  0.00  0.00     0.011 A 
ATOM     15  C   UNL d   1       9.866   6.990  -9.486  0.00  0.00     0.084 A 
ATOM     16  C   UNL d   1       9.857   7.738 -10.681  0.00  0.00     0.011 A 
ATOM     17  C   UNL d   1       9.445   7.116 -11.876  0.00  0.00    -0.003 A 
BRANCH  15  18
ATOM     18  S   UNL d   1      10.338   7.779  -7.957  0.00  0.00     0.191 S 
ATOM     19  C   UNL d   1       8.741   8.326  -7.247  0.00  0.00     0.145 C 
ATOM     20  O   UNL d   1      11.125   8.978  -8.271  0.00  0.00    -0.222 OA
ATOM     21  O   UNL d   1      10.902   6.748  -7.068  0.00  0.00    -0.222 OA
ENDBRANCH  15  18
ENDBRANCH  11  12
ENDBRANCH  10  11
ENDBRANCH   1  10
BRANCH   9  22
ATOM     22  C   UNL d   1       9.476   1.161 -15.565  0.00  0.00     0.135 C 
BRANCH  22  23
ATOM     23  C   UNL d   1       8.042   0.682 -15.381  0.00  0.00     0.001 A 
ATOM     24  C   UNL d   1       7.574   0.327 -14.099  0.00  0.00    -0.002 A 
ATOM     25  C   UNL d   1       6.256  -0.139 -13.926  0.00  0.00     0.011 A 
ATOM     26  C   UNL d   1       5.395  -0.251 -15.035  0.00  0.00     0.058 A 
ATOM     27  C   UNL d   1       5.855   0.102 -16.317  0.00  0.00     0.011 A 
ATOM     28 CL   UNL d   1       3.776  -0.811 -14.819  0.00  0.00    -0.082 Cl
ATOM     29  C   UNL d   1       7.172   0.565 -16.489  0.00  0.00    -0.002 A 
ENDBRANCH  22  23
ENDBRANCH   9  22
TORSDOF 6
