REMARK  9 active torsions:
REMARK  status: ('A' for Active; 'I' for Inactive)
REMARK    1  A    between atoms: O_2  and  C_3 
REMARK    2  A    between atoms: C_6  and  N_7 
REMARK    3  A    between atoms: N_10  and  C_11 
REMARK    4  A    between atoms: C_11  and  C_12 
REMARK    5  A    between atoms: C_12  and  C_13 
REMARK    6  A    between atoms: C_13  and  C_14 
REMARK    7  A    between atoms: C_14  and  N_15 
REMARK       I    between atoms: N_15  and  C_16 
REMARK    8  A    between atoms: C_16  and  C_18 
REMARK    9  A    between atoms: C_21  and  N_22 
ROOT
ATOM      1  C   UNL d   1       7.914   2.639 -14.365  0.00  0.00     0.037 C 
ENDROOT
BRANCH   1   2
ATOM      2  C   UNL d   1       8.239   2.592 -15.870  0.00  0.00     0.251 C 
BRANCH   2   3
ATOM      3  N   UNL d   1       9.311   1.635 -16.068  0.00  0.00     0.141 N 
ATOM      4  C   UNL d   1       9.099   0.912 -17.322  0.00  0.00     0.274 C 
ATOM      5  C   UNL d   1      10.220  -0.116 -17.536  0.00  0.00     0.137 C 
ATOM      6  N   UNL d   1      11.504   0.568 -17.513  0.00  0.00    -0.344 N 
ATOM      7  C   UNL d   1      11.750   1.380 -16.330  0.00  0.00     0.137 C 
ATOM      8  C   UNL d   1      10.593   2.361 -16.125  0.00  0.00     0.274 C 
BRANCH   6   9
ATOM      9  C   UNL d   1      12.461   0.429 -18.538  0.00  0.00     0.056 A 
ATOM     10  C   UNL d   1      13.357   1.466 -18.859  0.00  0.00     0.019 A 
ATOM     11  C   UNL d   1      14.314   1.314 -19.870  0.00  0.00     0.026 A 
ATOM     12  C   UNL d   1      14.400   0.108 -20.602  0.00  0.00     0.094 A 
ATOM     13  C   UNL d   1      13.512  -0.934 -20.287  0.00  0.00     0.026 A 
ATOM     14  C   UNL d   1      12.556  -0.781 -19.268  0.00  0.00     0.019 A 
BRANCH  12  15
ATOM     15  O   UNL d   1      15.304  -0.122 -21.624  0.00  0.00    -0.328 OA
ATOM     16  C   UNL d   1      16.233   0.904 -21.933  0.00  0.00     0.181 C 
ENDBRANCH  12  15
ENDBRANCH   6   9
ENDBRANCH   2   3
ENDBRANCH   1   2
BRANCH   1  17
ATOM     17  C   UNL d   1       6.689   3.556 -14.076  0.00  0.00     0.029 C 
BRANCH  17  18
ATOM     18  C   UNL d   1       6.251   3.544 -12.600  0.00  0.00     0.129 C 
BRANCH  18  19
ATOM     19  N   UNL d   1       7.050   4.366 -11.696  0.00  0.00    -0.234 NA
ATOM     20  C   UNL d   1       8.206   4.997 -11.936  0.00  0.00     0.275 C 
ATOM     21  O   UNL d   1       8.798   4.994 -12.998  0.00  0.00    -0.266 OA
BRANCH  20  22
ATOM     22  C   UNL d   1       8.765   5.778 -10.795  0.00  0.00     0.058 A 
ATOM     23  C   UNL d   1       8.659   5.329  -9.445  0.00  0.00     0.006 A 
ATOM     24  C   UNL d   1       9.234   6.111  -8.416  0.00  0.00     0.018 A 
ATOM     25  C   UNL d   1       9.911   7.312  -8.749  0.00  0.00     0.066 A 
ATOM     26  C   UNL d   1      10.055   7.731 -10.087  0.00  0.00     0.018 A 
ATOM     27  C   UNL d   1       9.473   6.954 -11.092  0.00  0.00     0.006 A 
BRANCH  25  28
ATOM     28  N   UNL d   1      10.505   8.106  -7.766  0.00  0.00    -0.287 N 
ATOM     29  C   UNL d   1       9.867   8.320  -6.610  0.00  0.00     0.183 A 
ATOM     30  N   UNL d   1      10.567   9.088  -5.796  0.00  0.00    -0.222 NA
ATOM     31  C   UNL d   1      11.730   9.394  -6.507  0.00  0.00     0.120 A 
ATOM     32  C   UNL d   1      11.705   8.792  -7.737  0.00  0.00     0.102 A 
ENDBRANCH  25  28
ENDBRANCH  20  22
ENDBRANCH  18  19
ENDBRANCH  17  18
ENDBRANCH   1  17
TORSDOF 9
