REMARK  7 active torsions:
REMARK  status: ('A' for Active; 'I' for Inactive)
REMARK    1  A    between atoms: C_2  and  O_4 
REMARK    2  A    between atoms: O_4  and  C_5 
REMARK    3  A    between atoms: C_8  and  S_9 
REMARK    4  A    between atoms: S_9  and  N_12 
REMARK    5  A    between atoms: N_12  and  C_13 
REMARK    6  A    between atoms: N_21  and  C_22 
REMARK    7  A    between atoms: C_22  and  C_23 
ROOT
ATOM      1  C   UNL d   1       8.786   5.414 -11.360  0.00  0.00     0.093 A 
ATOM      2  C   UNL d   1       8.235   4.733 -10.262  0.00  0.00     0.020 A 
ATOM      3  C   UNL d   1       8.655   5.051  -8.961  0.00  0.00    -0.003 A 
ATOM      4  C   UNL d   1       9.617   6.055  -8.738  0.00  0.00    -0.024 A 
ATOM      5  C   UNL d   1      10.191   6.719  -9.852  0.00  0.00    -0.022 A 
ATOM      6  C   UNL d   1       9.740   6.390 -11.143  0.00  0.00     0.015 A 
ATOM      7  C   UNL d   1      11.281   7.760  -9.720  0.00  0.00     0.061 C 
ATOM      8  C   UNL d   1      10.920   8.921  -8.822  0.00  0.00     0.255 C 
ATOM      9  N   UNL d   1      11.088   8.593  -7.414  0.00  0.00     0.144 N 
ATOM     10  C   UNL d   1       9.940   7.849  -6.904  0.00  0.00     0.255 C 
ATOM     11  C   UNL d   1      10.017   6.388  -7.312  0.00  0.00     0.061 C 
ENDROOT
BRANCH   1  12
ATOM     12  N   UNL d   1       8.400   5.141 -12.665  0.00  0.00    -0.158 NA
BRANCH  12  13
ATOM     13  S   UNL d   1       9.326   4.340 -13.884  0.00  0.00     0.285 S 
ATOM     14  O   UNL d   1      10.637   4.012 -13.272  0.00  0.00    -0.198 OA
ATOM     15  O   UNL d   1       9.241   5.143 -15.091  0.00  0.00    -0.198 OA
BRANCH  13  16
ATOM     16  C   UNL d   1       8.409   2.837 -14.144  0.00  0.00     0.105 A 
ATOM     17  C   UNL d   1       9.064   1.634 -14.474  0.00  0.00     0.015 A 
ATOM     18  C   UNL d   1       8.304   0.467 -14.701  0.00  0.00     0.025 A 
ATOM     19  C   UNL d   1       6.897   0.491 -14.615  0.00  0.00     0.094 A 
ATOM     20  C   UNL d   1       6.258   1.709 -14.269  0.00  0.00     0.025 A 
ATOM     21  C   UNL d   1       7.007   2.875 -14.043  0.00  0.00     0.015 A 
BRANCH  19  22
ATOM     22  O   UNL d   1       6.234  -0.697 -14.852  0.00  0.00    -0.333 OA
BRANCH  22  23
ATOM     23  C   UNL d   1       4.925  -0.670 -15.419  0.00  0.00     0.121 C 
ATOM     24  C   UNL d   1       3.835  -0.582 -14.328  0.00  0.00     0.033 C 
ATOM     25  C   UNL d   1       4.747  -1.968 -16.229  0.00  0.00     0.033 C 
ENDBRANCH  22  23
ENDBRANCH  19  22
ENDBRANCH  13  16
ENDBRANCH  12  13
ENDBRANCH   1  12
BRANCH   9  26
ATOM     26  C   UNL d   1      11.184   9.851  -6.703  0.00  0.00     0.297 C 
BRANCH  26  27
ATOM     27  C   UNL d   1      11.506   9.708  -5.272  0.00  0.00     0.116 A 
ATOM     28  N   UNL d   1      12.691   9.184  -4.835  0.00  0.00    -0.150 NA
ATOM     29  N   UNL d   1      12.759   9.062  -3.504  0.00  0.00    -0.147 NA
ATOM     30  C   UNL d   1      11.636   9.583  -3.085  0.00  0.00     0.123 A 
ATOM     31  C   UNL d   1      10.789   9.985  -4.154  0.00  0.00     0.041 A 
ENDBRANCH  26  27
ENDBRANCH   9  26
TORSDOF 7
