REMARK  4 active torsions:
REMARK  status: ('A' for Active; 'I' for Inactive)
REMARK    1  A    between atoms: C_5  and  C_6 
REMARK    2  A    between atoms: C_6  and  N_7 
REMARK    3  A    between atoms: N_10  and  C_11 
REMARK    4  A    between atoms: C_16  and  O_17 
ROOT
ATOM      1  C   UNL d   1      11.273   2.632 -16.235  0.00  0.00     0.081 C 
ATOM      2  C   UNL d   1      10.485   3.204 -15.493  0.00  0.00    -0.131 C 
ATOM      3  C   UNL d   1       9.559   3.876 -14.588  0.00  0.00     0.012 A 
ATOM      4  C   UNL d   1       9.812   5.163 -14.038  0.00  0.00     0.058 A 
ATOM      5  C   UNL d   1       8.679   5.507 -13.215  0.00  0.00    -0.006 A 
ATOM      6  C   UNL d   1       7.755   4.442 -13.265  0.00  0.00    -0.005 A 
ATOM      7  C   UNL d   1       6.531   4.461 -12.598  0.00  0.00    -0.001 A 
ATOM      8  C   UNL d   1       5.534   3.447 -12.603  0.00  0.00    -0.000 A 
ATOM      9  C   UNL d   1       5.535   2.167 -13.242  0.00  0.00    -0.000 A 
ATOM     10  C   UNL d   1       6.518   1.589 -14.104  0.00  0.00     0.000 A 
ATOM     11  C   UNL d   1       7.771   2.139 -14.526  0.00  0.00     0.000 A 
ATOM     12  C   UNL d   1       8.320   3.373 -14.157  0.00  0.00     0.003 A 
ENDROOT
BRANCH   5  13
ATOM     13  C   UNL d   1       8.502   6.825 -12.467  0.00  0.00     0.273 C 
BRANCH  13  14
ATOM     14  N   UNL d   1       9.642   7.157 -11.647  0.00  0.00     0.145 N 
ATOM     15  C   UNL d   1       9.562   8.529 -11.129  0.00  0.00     0.275 C 
ATOM     16  C   UNL d   1      10.815   8.919 -10.291  0.00  0.00     0.137 C 
ATOM     17  N   UNL d   1      11.051   7.924  -9.277  0.00  0.00    -0.343 N 
ATOM     18  C   UNL d   1      10.993   6.554  -9.723  0.00  0.00     0.137 C 
ATOM     19  C   UNL d   1       9.755   6.219 -10.541  0.00  0.00     0.275 C 
BRANCH  17  20
ATOM     20  C   UNL d   1      11.113   8.236  -7.920  0.00  0.00     0.079 A 
ATOM     21  C   UNL d   1      10.250   7.624  -6.997  0.00  0.00     0.110 A 
ATOM     22  C   UNL d   1      10.422   7.921  -5.628  0.00  0.00     0.026 A 
ATOM     23  C   UNL d   1      11.367   8.866  -5.169  0.00  0.00     0.002 A 
ATOM     24  C   UNL d   1      12.220   9.480  -6.092  0.00  0.00     0.002 A 
ATOM     25  C   UNL d   1      12.097   9.120  -7.442  0.00  0.00     0.019 A 
BRANCH  21  26
ATOM     26  O   UNL d   1       9.313   6.737  -7.474  0.00  0.00    -0.327 OA
ATOM     27  C   UNL d   1       8.205   6.444  -6.658  0.00  0.00     0.181 C 
ENDBRANCH  21  26
ENDBRANCH  17  20
ENDBRANCH  13  14
ENDBRANCH   5  13
TORSDOF 4
