REMARK  3 active torsions:
REMARK  status: ('A' for Active; 'I' for Inactive)
REMARK    1  A    between atoms: N_3  and  C_4 
REMARK    2  A    between atoms: C_4  and  C_5 
REMARK    3  A    between atoms: N_13  and  C_14 
ROOT
ATOM      1  O   UNL d   1       9.230   8.720  -7.764  0.00  0.00    -0.247 OA
ATOM      2  C   UNL d   1      10.372   8.530  -8.193  0.00  0.00     0.328 A 
ATOM      3  N   UNL d   1      10.736   8.329  -9.468  0.00  0.00    -0.300 N 
ATOM      4  C   UNL d   1      12.166   8.167  -9.642  0.00  0.00     0.131 A 
ATOM      5  C   UNL d   1      12.681   8.259  -8.215  0.00  0.00     0.135 A 
ATOM      6  N   UNL d   1      11.474   8.489  -7.437  0.00  0.00    -0.280 N 
ENDROOT
BRANCH   3   7
ATOM      7  C   UNL d   1       9.852   8.285 -10.620  0.00  0.00     0.108 C 
BRANCH   7   8
ATOM      8  C   UNL d   1       9.454   6.843 -10.989  0.00  0.00     0.059 C 
ATOM      9  C   UNL d   1       8.823   6.028  -9.831  0.00  0.00     0.292 C 
ATOM     10  N   UNL d   1       8.578   4.683 -10.275  0.00  0.00     0.339 N 
ATOM     11  C   UNL d   1       7.599   4.662 -11.357  0.00  0.00     0.290 C 
ATOM     12  C   UNL d   1       8.174   5.370 -12.589  0.00  0.00     0.038 C 
ATOM     13  C   UNL d   1       8.542   6.817 -12.231  0.00  0.00     0.006 C 
ENDBRANCH   7   8
ENDBRANCH   3   7
BRANCH   6  14
ATOM     14  C   UNL d   1      11.459   8.606  -6.033  0.00  0.00     0.065 A 
ATOM     15  C   UNL d   1      11.811   7.515  -5.196  0.00  0.00     0.029 A 
ATOM     16  C   UNL d   1      11.864   7.682  -3.796  0.00  0.00     0.059 A 
ATOM     17  C   UNL d   1      11.505   8.913  -3.237  0.00  0.00     0.011 A 
ATOM     18 CL   UNL d   1      12.313   6.394  -2.742  0.00  0.00    -0.082 Cl
ATOM     19  C   UNL d   1      11.086   9.955  -4.059  0.00  0.00     0.002 A 
ATOM     20  C   UNL d   1      11.084   9.831  -5.461  0.00  0.00     0.017 A 
ENDBRANCH   6  14
TORSDOF 3
