REMARK  13 active torsions:
REMARK  status: ('A' for Active; 'I' for Inactive)
REMARK    1  A    between atoms: C_2  and  C_3 
REMARK    2  A    between atoms: C_3  and  N_4 
REMARK    3  A    between atoms: N_4  and  C_5 
REMARK    4  A    between atoms: N_4  and  C_24 
REMARK    5  A    between atoms: C_5  and  C_6 
REMARK    6  A    between atoms: C_6  and  C_7 
REMARK    7  A    between atoms: C_7  and  C_8 
REMARK    8  A    between atoms: C_8  and  N_9 
REMARK       I    between atoms: N_9  and  C_10 
REMARK    9  A    between atoms: C_10  and  C_12 
REMARK   10  A    between atoms: C_15  and  C_16 
REMARK   11  A    between atoms: C_24  and  C_25 
REMARK   12  A    between atoms: C_27  and  C_28 
REMARK   13  A    between atoms: C_31  and  C_32 
ROOT
ATOM      1  C   UNL d   1      10.051   1.717 -15.010  0.00  0.00     0.250 C 
ENDROOT
BRANCH   1   2
ATOM      2  N   UNL d   1       9.575   0.984 -16.186  0.00  0.00     0.137 N 
BRANCH   2   3
ATOM      3  C   UNL d   1      10.617   0.071 -16.648  0.00  0.00     0.250 C 
BRANCH   3   4
ATOM      4  C   UNL d   1      11.708   0.790 -17.459  0.00  0.00     0.035 C 
ATOM      5  C   UNL d   1      12.473  -0.153 -18.401  0.00  0.00     0.002 C 
ENDBRANCH   3   4
ENDBRANCH   2   3
BRANCH   2   6
ATOM      6  C   UNL d   1       8.369   0.225 -15.846  0.00  0.00     0.251 C 
BRANCH   6   7
ATOM      7  C   UNL d   1       7.587  -0.162 -17.084  0.00  0.00     0.038 A 
ATOM      8  C   UNL d   1       6.602   0.803 -17.705  0.00  0.00     0.024 A 
ATOM      9  C   UNL d   1       6.098  -0.417 -16.972  0.00  0.00     0.007 A 
BRANCH   8  10
ATOM     10  C   UNL d   1       6.479   0.905 -19.185  0.00  0.00    -0.022 A 
ATOM     11  C   UNL d   1       5.214   0.778 -19.787  0.00  0.00    -0.004 A 
ATOM     12  C   UNL d   1       5.087   0.855 -21.185  0.00  0.00     0.004 A 
ATOM     13  C   UNL d   1       6.218   1.055 -22.003  0.00  0.00     0.071 A 
ATOM     14  C   UNL d   1       7.488   1.178 -21.398  0.00  0.00     0.004 A 
ATOM     15  C   UNL d   1       7.615   1.112 -19.994  0.00  0.00    -0.004 A 
BRANCH  13  16
ATOM     16  C   UNL d   1       6.077   1.110 -23.516  0.00  0.00     0.419 C 
ATOM     17  F   UNL d   1       4.865   1.538 -23.871  0.00  0.00    -0.166 F 
ATOM     18  F   UNL d   1       6.979   1.944 -24.037  0.00  0.00    -0.166 F 
ATOM     19  F   UNL d   1       6.271  -0.104 -24.031  0.00  0.00    -0.166 F 
ENDBRANCH  13  16
ENDBRANCH   8  10
ENDBRANCH   6   7
ENDBRANCH   2   6
ENDBRANCH   1   2
BRANCH   1  20
ATOM     20  C   UNL d   1       9.186   2.958 -14.734  0.00  0.00     0.037 C 
BRANCH  20  21
ATOM     21  C   UNL d   1       9.661   3.727 -13.501  0.00  0.00     0.029 C 
BRANCH  21  22
ATOM     22  C   UNL d   1       8.922   5.064 -13.361  0.00  0.00     0.129 C 
BRANCH  22  23
ATOM     23  N   UNL d   1       9.262   5.728 -12.112  0.00  0.00    -0.234 NA
ATOM     24  C   UNL d   1       8.701   5.410 -10.936  0.00  0.00     0.275 C 
ATOM     25  O   UNL d   1       7.798   4.586 -10.850  0.00  0.00    -0.266 OA
BRANCH  24  26
ATOM     26  C   UNL d   1       9.271   6.087  -9.718  0.00  0.00     0.058 A 
ATOM     27  C   UNL d   1      10.308   7.044  -9.816  0.00  0.00     0.005 A 
ATOM     28  C   UNL d   1      10.838   7.654  -8.666  0.00  0.00     0.002 A 
ATOM     29  C   UNL d   1      10.339   7.336  -7.387  0.00  0.00     0.018 A 
ATOM     30  C   UNL d   1       9.291   6.396  -7.287  0.00  0.00     0.002 A 
ATOM     31  C   UNL d   1       8.771   5.767  -8.435  0.00  0.00     0.005 A 
BRANCH  29  32
ATOM     32  C   UNL d   1      10.892   7.974  -6.186  0.00  0.00     0.081 A 
ATOM     33  N   UNL d   1      10.949   9.323  -6.226  0.00  0.00    -0.244 NA
ATOM     34  C   UNL d   1      11.436   9.976  -5.157  0.00  0.00     0.099 A 
ATOM     35  C   UNL d   1      11.898   9.322  -3.998  0.00  0.00     0.021 A 
ATOM     36  C   UNL d   1      11.857   7.915  -3.962  0.00  0.00     0.003 A 
ATOM     37  C   UNL d   1      11.332   7.229  -5.073  0.00  0.00     0.019 A 
ENDBRANCH  29  32
ENDBRANCH  24  26
ENDBRANCH  22  23
ENDBRANCH  21  22
ENDBRANCH  20  21
ENDBRANCH   1  20
TORSDOF 13
