REMARK  5 active torsions:
REMARK  status: ('A' for Active; 'I' for Inactive)
REMARK    1  A    between atoms: C_2  and  C_3 
REMARK    2  A    between atoms: C_3  and  C_4 
REMARK    3  A    between atoms: C_4  and  N_5 
REMARK    4  A    between atoms: N_13  and  C_14 
REMARK    5  A    between atoms: C_19  and  O_20 
ROOT
ATOM      1  N   UNL d   1      12.733   3.899 -18.309  0.00  0.00     0.137 N 
ATOM      2  C   UNL d   1      11.394   4.501 -18.368  0.00  0.00     0.250 C 
ATOM      3  C   UNL d   1      10.424   3.720 -17.466  0.00  0.00     0.037 C 
ATOM      4  C   UNL d   1      10.919   3.701 -16.002  0.00  0.00     0.026 C 
ATOM      5  C   UNL d   1      12.349   3.154 -15.996  0.00  0.00     0.037 C 
ATOM      6  C   UNL d   1      13.256   3.952 -16.939  0.00  0.00     0.250 C 
ATOM      7  C   UNL d   1      10.792   5.109 -15.370  0.00  0.00     0.026 C 
ATOM      8  C   UNL d   1       9.352   5.156 -14.863  0.00  0.00     0.102 C 
ATOM      9  N   UNL d   1       9.020   3.771 -14.597  0.00  0.00    -0.347 N 
ATOM     10  C   UNL d   1      10.011   2.840 -15.118  0.00  0.00     0.102 C 
ENDROOT
BRANCH   9  11
ATOM     11  C   UNL d   1       7.812   3.408 -13.962  0.00  0.00     0.079 A 
ATOM     12  C   UNL d   1       7.039   2.324 -14.437  0.00  0.00     0.110 A 
ATOM     13  C   UNL d   1       5.868   1.952 -13.731  0.00  0.00     0.026 A 
ATOM     14  C   UNL d   1       5.457   2.682 -12.599  0.00  0.00     0.002 A 
ATOM     15  C   UNL d   1       6.204   3.787 -12.158  0.00  0.00     0.002 A 
ATOM     16  C   UNL d   1       7.381   4.145 -12.838  0.00  0.00     0.019 A 
BRANCH  12  17
ATOM     17  O   UNL d   1       7.438   1.694 -15.598  0.00  0.00    -0.327 OA
ATOM     18  C   UNL d   1       6.777   0.512 -16.004  0.00  0.00     0.181 C 
ENDBRANCH  12  17
ENDBRANCH   9  11
BRANCH   1  19
ATOM     19  C   UNL d   1      13.640   4.652 -19.165  0.00  0.00     0.250 C 
BRANCH  19  20
ATOM     20  C   UNL d   1      13.353   4.405 -20.659  0.00  0.00     0.035 C 
BRANCH  20  21
ATOM     21  C   UNL d   1      14.336   5.138 -21.578  0.00  0.00     0.002 C 
ATOM     22  C   UNL d   1      14.219   6.665 -21.474  0.00  0.00     0.000 C 
ENDBRANCH  20  21
ENDBRANCH  19  20
ENDBRANCH   1  19
TORSDOF 5
