REMARK  8 active torsions:
REMARK  status: ('A' for Active; 'I' for Inactive)
REMARK    1  A    between atoms: C_4  and  C_5 
REMARK    2  A    between atoms: C_8  and  C_9 
REMARK    3  A    between atoms: C_13  and  O_14 
REMARK    4  A    between atoms: O_14  and  C_15 
REMARK       I    between atoms: C_15  and  N_17 
REMARK    5  A    between atoms: N_17  and  C_18 
REMARK    6  A    between atoms: C_18  and  C_19 
REMARK    7  A    between atoms: C_19  and  N_20 
REMARK    8  A    between atoms: N_23  and  C_24 
ROOT
ATOM      1  C   UNL d   1       8.952   4.783 -12.880  0.00  0.00     0.388 C 
ATOM      2  O   UNL d   1       8.266   5.633 -13.444  0.00  0.00    -0.236 OA
ATOM      3  N   UNL d   1       9.281   4.751 -11.542  0.00  0.00    -0.210 NA
ENDROOT
BRANCH   1   4
ATOM      4  O   UNL d   1       9.515   3.713 -13.480  0.00  0.00    -0.258 OA
BRANCH   4   5
ATOM      5  C   UNL d   1       9.428   3.572 -14.842  0.00  0.00     0.105 A 
ATOM      6  C   UNL d   1      10.002   4.522 -15.716  0.00  0.00     0.025 A 
ATOM      7  C   UNL d   1       9.911   4.348 -17.107  0.00  0.00     0.002 A 
ATOM      8  C   UNL d   1       9.258   3.217 -17.631  0.00  0.00     0.002 A 
ATOM      9  C   UNL d   1       8.682   2.262 -16.768  0.00  0.00     0.020 A 
ATOM     10  C   UNL d   1       8.780   2.439 -15.373  0.00  0.00     0.026 A 
BRANCH   9  11
ATOM     11  C   UNL d   1       8.027   1.086 -17.311  0.00  0.00     0.086 A 
ATOM     12  C   UNL d   1       8.479  -0.110 -17.826  0.00  0.00     0.078 A 
ATOM     13  C   UNL d   1       7.319  -0.851 -18.217  0.00  0.00     0.021 A 
ATOM     14  C   UNL d   1       6.202  -0.120 -17.918  0.00  0.00     0.060 A 
ATOM     15  C   UNL d   1       4.746  -0.405 -18.076  0.00  0.00     0.052 C 
ATOM     16  N   UNL d   1       6.650   1.058 -17.365  0.00  0.00    -0.250 NA
BRANCH  12  17
ATOM     17  C   UNL d   1       9.905  -0.515 -17.923  0.00  0.00     0.298 C 
ATOM     18  N   UNL d   1      10.829   0.323 -17.457  0.00  0.00    -0.102 N 
ATOM     19  O   UNL d   1      10.227  -1.597 -18.405  0.00  0.00    -0.264 OA
ENDBRANCH  12  17
ENDBRANCH   9  11
ENDBRANCH   4   5
ENDBRANCH   1   4
BRANCH   3  20
ATOM     20  C   UNL d   1       8.857   5.753 -10.573  0.00  0.00     0.166 C 
BRANCH  20  21
ATOM     21  C   UNL d   1      10.069   6.603 -10.122  0.00  0.00     0.277 C 
BRANCH  21  22
ATOM     22  N   UNL d   1       9.835   7.361  -8.896  0.00  0.00     0.143 N 
ATOM     23  C   UNL d   1      10.980   8.241  -8.627  0.00  0.00     0.274 C 
ATOM     24  C   UNL d   1      10.716   9.104  -7.371  0.00  0.00     0.137 C 
ATOM     25  N   UNL d   1      10.376   8.249  -6.242  0.00  0.00    -0.344 N 
ATOM     26  C   UNL d   1       9.329   7.270  -6.486  0.00  0.00     0.137 C 
ATOM     27  C   UNL d   1       9.639   6.462  -7.751  0.00  0.00     0.274 C 
BRANCH  25  28
ATOM     28  C   UNL d   1      11.077   8.289  -5.040  0.00  0.00     0.056 A 
ATOM     29  C   UNL d   1      11.478   7.098  -4.389  0.00  0.00     0.017 A 
ATOM     30  C   UNL d   1      12.165   7.147  -3.159  0.00  0.00     0.002 A 
ATOM     31  C   UNL d   1      12.445   8.389  -2.564  0.00  0.00     0.000 A 
ATOM     32  C   UNL d   1      12.041   9.575  -3.202  0.00  0.00     0.002 A 
ATOM     33  C   UNL d   1      11.372   9.532  -4.436  0.00  0.00     0.017 A 
ENDBRANCH  25  28
ENDBRANCH  21  22
ENDBRANCH  20  21
ENDBRANCH   3  20
TORSDOF 8
