REMARK  7 active torsions:
REMARK  status: ('A' for Active; 'I' for Inactive)
REMARK    1  A    between atoms: O_2  and  C_3 
REMARK    2  A    between atoms: C_6  and  O_7 
REMARK    3  A    between atoms: O_7  and  C_8 
REMARK    4  A    between atoms: C_8  and  C_9 
REMARK    5  A    between atoms: C_9  and  N_10 
REMARK       I    between atoms: N_13  and  C_14 
REMARK    6  A    between atoms: C_14  and  C_16 
REMARK    7  A    between atoms: C_22  and  O_23 
ROOT
ATOM      1  N   UNL d   1       9.578   2.493 -15.198  0.00  0.00     0.144 N 
ATOM      2  C   UNL d   1      10.376   3.340 -14.324  0.00  0.00     0.274 C 
ATOM      3  C   UNL d   1       9.582   4.554 -13.863  0.00  0.00     0.140 C 
ATOM      4  N   UNL d   1       8.357   4.136 -13.155  0.00  0.00    -0.311 N 
ATOM      5  C   UNL d   1       7.947   4.562 -11.944  0.00  0.00     0.275 C 
ATOM      6  O   UNL d   1       6.985   4.064 -11.382  0.00  0.00    -0.266 OA
ATOM      7  C   UNL d   1       7.559   3.176 -13.947  0.00  0.00     0.140 C 
ATOM      8  C   UNL d   1       8.414   2.006 -14.457  0.00  0.00     0.274 C 
ENDROOT
BRANCH   5   9
ATOM      9  C   UNL d   1       8.709   5.628 -11.238  0.00  0.00     0.137 A 
ATOM     10  N   UNL d   1       8.764   5.601  -9.844  0.00  0.00    -0.239 NA
ATOM     11  C   UNL d   1       9.465   6.702  -9.361  0.00  0.00     0.104 A 
ATOM     12  C   UNL d   1       9.858   7.433 -10.517  0.00  0.00     0.021 A 
ATOM     13  C   UNL d   1       9.790   7.141  -8.057  0.00  0.00     0.112 A 
ATOM     14  C   UNL d   1       9.325   6.777 -11.668  0.00  0.00     0.025 A 
ATOM     15  C   UNL d   1      10.601   8.612 -10.317  0.00  0.00     0.002 A 
ATOM     16  C   UNL d   1      10.920   9.066  -9.034  0.00  0.00     0.002 A 
ATOM     17  C   UNL d   1      10.528   8.343  -7.900  0.00  0.00     0.026 A 
BRANCH  13  18
ATOM     18  O   UNL d   1       9.347   6.388  -7.000  0.00  0.00    -0.327 OA
ATOM     19  C   UNL d   1       9.806   6.766  -5.722  0.00  0.00     0.181 C 
ENDBRANCH  13  18
ENDBRANCH   5   9
BRANCH   1  20
ATOM     20  C   UNL d   1      10.395   1.364 -15.603  0.00  0.00     0.283 C 
BRANCH  20  21
ATOM     21  C   UNL d   1       9.842   0.779 -16.919  0.00  0.00     0.184 C 
BRANCH  21  22
ATOM     22  O   UNL d   1      10.762  -0.131 -17.483  0.00  0.00    -0.329 OA
BRANCH  22  23
ATOM     23  C   UNL d   1      11.841   0.373 -18.179  0.00  0.00     0.094 A 
ATOM     24  C   UNL d   1      12.593  -0.575 -18.881  0.00  0.00     0.026 A 
ATOM     25  C   UNL d   1      13.715  -0.204 -19.630  0.00  0.00     0.026 A 
ATOM     26  C   UNL d   1      14.141   1.147 -19.667  0.00  0.00     0.094 A 
ATOM     27  C   UNL d   1      13.390   2.110 -18.957  0.00  0.00     0.026 A 
ATOM     28  C   UNL d   1      12.238   1.739 -18.235  0.00  0.00     0.026 A 
BRANCH  26  29
ATOM     29  O   UNL d   1      15.250   1.597 -20.355  0.00  0.00    -0.328 OA
ATOM     30  C   UNL d   1      15.999   0.602 -21.062  0.00  0.00     0.181 C 
ENDBRANCH  26  29
ENDBRANCH  22  23
ENDBRANCH  21  22
ENDBRANCH  20  21
ENDBRANCH   1  20
TORSDOF 7
