REMARK  3 active torsions:
REMARK  status: ('A' for Active; 'I' for Inactive)
REMARK    1  A    between atoms: C_3  and  C_4 
REMARK    2  A    between atoms: N_15  and  C_16 
REMARK    3  A    between atoms: C_16  and  C_17 
ROOT
ATOM      1  O   UNL d   1      10.372   5.212 -12.728  0.00  0.00    -0.289 OA
ATOM      2  C   UNL d   1       9.308   5.167 -12.121  0.00  0.00     0.202 A 
ATOM      3  C   UNL d   1       8.091   4.528 -12.540  0.00  0.00     0.061 A 
ATOM      4  C   UNL d   1       7.167   4.997 -11.714  0.00  0.00     0.119 A 
ATOM      5  O   UNL d   1       7.598   5.875 -10.760  0.00  0.00    -0.324 OA
ATOM      6  C   UNL d   1       9.003   5.995 -10.883  0.00  0.00     0.186 A 
ATOM      7  C   UNL d   1       9.484   7.446 -11.052  0.00  0.00     0.073 C 
ATOM      8  C   UNL d   1      10.375   7.696  -9.883  0.00  0.00     0.254 C 
ATOM      9  N   UNL d   1       9.886   6.822  -8.823  0.00  0.00     0.144 N 
ATOM     10  C   UNL d   1       9.653   5.564  -9.537  0.00  0.00     0.285 C 
ENDROOT
BRANCH   3  11
ATOM     11  C   UNL d   1       7.977   3.596 -13.680  0.00  0.00     0.005 A 
ATOM     12  C   UNL d   1       9.016   3.471 -14.643  0.00  0.00     0.000 A 
ATOM     13  C   UNL d   1       8.848   2.605 -15.715  0.00  0.00     0.000 A 
ATOM     14  C   UNL d   1       7.670   1.861 -15.825  0.00  0.00     0.000 A 
ATOM     15  C   UNL d   1       6.655   1.969 -14.854  0.00  0.00     0.000 A 
ATOM     16  C   UNL d   1       6.798   2.849 -13.781  0.00  0.00     0.000 A 
ENDBRANCH   3  11
BRANCH   9  17
ATOM     17  C   UNL d   1      10.781   6.649  -7.668  0.00  0.00     0.277 C 
BRANCH  17  18
ATOM     18  C   UNL d   1      10.910   7.840  -6.737  0.00  0.00     0.011 C 
ATOM     19  C   UNL d   1      11.068   9.156  -7.212  0.00  0.00    -0.002 C 
ATOM     20  C   UNL d   1      11.099  10.223  -6.334  0.00  0.00    -0.000 C 
ATOM     21  C   UNL d   1      11.098  10.014  -4.943  0.00  0.00    -0.000 C 
ATOM     22  C   UNL d   1      11.104   8.694  -4.449  0.00  0.00    -0.000 C 
ATOM     23  C   UNL d   1      10.982   7.593  -5.330  0.00  0.00    -0.002 C 
ENDBRANCH  17  18
ENDBRANCH   9  17
TORSDOF 3
