REMARK  7 active torsions:
REMARK  status: ('A' for Active; 'I' for Inactive)
REMARK    1  A    between atoms: S_2  and  C_5 
REMARK    2  A    between atoms: C_9  and  C_10 
REMARK    3  A    between atoms: C_11  and  C_12 
REMARK       I    between atoms: C_12  and  N_14 
REMARK    4  A    between atoms: N_14  and  C_15 
REMARK    5  A    between atoms: C_18  and  C_19 
REMARK    6  A    between atoms: C_19  and  C_20 
REMARK    7  A    between atoms: C_20  and  N_21 
ROOT
ATOM      1  N   UNL d   1       9.840   6.223 -11.674  0.00  0.00     0.142 N 
ATOM      2  C   UNL d   1       9.320   7.578 -11.796  0.00  0.00     0.255 C 
ATOM      3  C   UNL d   1      10.021   8.484 -10.768  0.00  0.00     0.061 C 
ATOM      4  C   UNL d   1      10.072   7.900  -9.374  0.00  0.00    -0.022 A 
ATOM      5  C   UNL d   1      10.384   8.720  -8.275  0.00  0.00     0.006 A 
ATOM      6  C   UNL d   1      10.420   8.194  -6.973  0.00  0.00     0.068 A 
ATOM      7  C   UNL d   1      10.751   9.042  -5.850  0.00  0.00     0.101 C 
ATOM      8  N   UNL d   1      11.022   9.735  -4.938  0.00  0.00    -0.191 NA
ATOM      9  C   UNL d   1      10.147   6.816  -6.793  0.00  0.00     0.010 A 
ATOM     10  C   UNL d   1       9.839   5.992  -7.898  0.00  0.00    -0.002 A 
ATOM     11  C   UNL d   1       9.809   6.535  -9.187  0.00  0.00     0.007 A 
ATOM     12  C   UNL d   1       9.419   5.671 -10.380  0.00  0.00     0.276 C 
ENDROOT
BRANCH   1  13
ATOM     13  C   UNL d   1       9.316   5.402 -12.764  0.00  0.00     0.251 C 
BRANCH  13  14
ATOM     14  C   UNL d   1      10.470   4.790 -13.602  0.00  0.00     0.035 C 
BRANCH  14  15
ATOM     15  C   UNL d   1      10.059   3.559 -14.450  0.00  0.00     0.002 C 
ATOM     16  C   UNL d   1       9.031   2.658 -13.740  0.00  0.00     0.002 C 
ATOM     17  C   UNL d   1       8.661   1.401 -14.521  0.00  0.00     0.024 C 
ATOM     18  C   UNL d   1       8.116   1.821 -15.895  0.00  0.00     0.107 C 
ATOM     19  C   UNL d   1       9.130   2.706 -16.646  0.00  0.00     0.024 C 
ATOM     20  C   UNL d   1       9.540   3.949 -15.831  0.00  0.00     0.002 C 
BRANCH  18  21
ATOM     21  N   UNL d   1       7.797   0.623 -16.653  0.00  0.00    -0.236 NA
ATOM     22  C   UNL d   1       6.895   0.587 -17.650  0.00  0.00     0.275 C 
ATOM     23  O   UNL d   1       6.393   1.589 -18.144  0.00  0.00    -0.266 OA
BRANCH  22  24
ATOM     24  C   UNL d   1       6.577  -0.783 -18.001  0.00  0.00     0.062 C 
ATOM     25  C   UNL d   1       5.548  -1.076 -18.810  0.00  0.00     0.005 C 
BRANCH  25  26
ATOM     26  C   UNL d   1       5.139  -2.446 -19.167  0.00  0.00     0.001 A 
ATOM     27  C   UNL d   1       4.267  -2.648 -20.255  0.00  0.00     0.000 A 
ATOM     28  C   UNL d   1       3.894  -3.950 -20.648  0.00  0.00     0.001 A 
ATOM     29  C   UNL d   1       4.398  -5.071 -19.959  0.00  0.00     0.011 A 
ATOM     30  C   UNL d   1       5.275  -4.871 -18.876  0.00  0.00     0.084 A 
ATOM     31  C   UNL d   1       5.639  -3.577 -18.470  0.00  0.00     0.011 A 
BRANCH  30  32
ATOM     32  S   UNL d   1       5.931  -6.273 -17.975  0.00  0.00     0.191 S 
ATOM     33  C   UNL d   1       4.660  -6.622 -16.706  0.00  0.00     0.145 C 
ATOM     34  O   UNL d   1       7.146  -5.835 -17.275  0.00  0.00    -0.222 OA
ATOM     35  O   UNL d   1       5.991  -7.420 -18.892  0.00  0.00    -0.222 OA
ENDBRANCH  30  32
ENDBRANCH  25  26
ENDBRANCH  22  24
ENDBRANCH  18  21
ENDBRANCH  14  15
ENDBRANCH  13  14
ENDBRANCH   1  13
TORSDOF 7
