REMARK  13 active torsions:
REMARK  status: ('A' for Active; 'I' for Inactive)
REMARK    1  A    between atoms: O_2  and  C_3 
REMARK    2  A    between atoms: C_5  and  C_6 
REMARK    3  A    between atoms: C_6  and  C_7 
REMARK    4  A    between atoms: C_7  and  N_8 
REMARK    5  A    between atoms: C_11  and  C_13 
REMARK    6  A    between atoms: C_24  and  O_25 
REMARK    7  A    between atoms: O_25  and  C_26 
REMARK    8  A    between atoms: C_26  and  C_27 
REMARK    9  A    between atoms: C_27  and  C_28 
REMARK   10  A    between atoms: C_28  and  S_29 
REMARK   11  A    between atoms: S_29  and  S_30 
REMARK   12  A    between atoms: S_30  and  C_31 
REMARK   13  A    between atoms: C_31  and  C_32 
ROOT
ATOM      1  C   UNL d   1       8.690   2.911 -15.050  0.00  0.00     0.116 A 
ATOM      2  C   UNL d   1       8.524   3.338 -13.706  0.00  0.00     0.022 A 
ATOM      3  C   UNL d   1       9.575   3.992 -13.033  0.00  0.00    -0.018 A 
ATOM      4  C   UNL d   1      10.783   4.239 -13.712  0.00  0.00    -0.002 A 
ATOM      5  C   UNL d   1      10.943   3.857 -15.054  0.00  0.00     0.026 A 
ATOM      6  C   UNL d   1       9.904   3.182 -15.730  0.00  0.00     0.116 A 
ENDROOT
BRANCH   3   7
ATOM      7  C   UNL d   1       9.439   4.391 -11.580  0.00  0.00     0.062 C 
BRANCH   7   8
ATOM      8  C   UNL d   1       9.514   5.915 -11.356  0.00  0.00     0.255 C 
BRANCH   8   9
ATOM      9  N   UNL d   1      10.008   6.253 -10.018  0.00  0.00     0.138 N 
ATOM     10  C   UNL d   1      10.479   7.640 -10.006  0.00  0.00     0.253 C 
ATOM     11  C   UNL d   1      11.096   7.992  -8.637  0.00  0.00     0.070 C 
ATOM     12  C   UNL d   1      10.093   7.780  -7.501  0.00  0.00     0.149 C 
ATOM     13  C   UNL d   1       9.491   6.362  -7.619  0.00  0.00     0.070 C 
ATOM     14  O   UNL d   1       9.054   8.717  -7.692  0.00  0.00    -0.221 OA
ATOM     15  C   UNL d   1       8.952   6.064  -9.024  0.00  0.00     0.253 C 
BRANCH  12  16
ATOM     16  C   UNL d   1      10.764   8.029  -6.133  0.00  0.00     0.005 A 
ATOM     17  C   UNL d   1      10.861   9.341  -5.613  0.00  0.00    -0.001 A 
ATOM     18  C   UNL d   1      11.437   9.581  -4.346  0.00  0.00     0.011 A 
ATOM     19  C   UNL d   1      11.943   8.505  -3.588  0.00  0.00     0.058 A 
ATOM     20  C   UNL d   1      11.863   7.201  -4.097  0.00  0.00     0.011 A 
ATOM     21 CL   UNL d   1      12.650   8.788  -2.038  0.00  0.00    -0.082 Cl
ATOM     22  C   UNL d   1      11.298   6.965  -5.363  0.00  0.00    -0.001 A 
ENDBRANCH  12  16
ENDBRANCH   8   9
ENDBRANCH   7   8
ENDBRANCH   3   7
BRANCH   1  23
ATOM     23  O   UNL d   1       7.710   2.245 -15.759  0.00  0.00    -0.326 OA
ATOM     24  C   UNL d   1       6.641   1.645 -15.035  0.00  0.00     0.181 C 
ENDBRANCH   1  23
BRANCH   6  25
ATOM     25  O   UNL d   1       9.990   2.796 -17.049  0.00  0.00    -0.329 OA
BRANCH  25  26
ATOM     26  C   UNL d   1      11.254   2.664 -17.692  0.00  0.00     0.150 C 
BRANCH  26  27
ATOM     27  C   UNL d   1      11.546   1.177 -17.900  0.00  0.00     0.045 C 
BRANCH  27  28
ATOM     28  C   UNL d   1      12.681   0.958 -18.891  0.00  0.00     0.071 C 
BRANCH  28  29
ATOM     29  S   UNL d   1      12.976  -0.799 -19.234  0.00  0.00    -0.082 SA
BRANCH  29  30
ATOM     30  S   UNL d   1      14.142  -0.800 -20.911  0.00  0.00    -0.080 SA
BRANCH  30  31
ATOM     31  C   UNL d   1      15.814  -0.408 -20.319  0.00  0.00     0.110 C 
BRANCH  31  32
ATOM     32  C   UNL d   1      16.283   0.996 -20.746  0.00  0.00     0.351 C 
ATOM     33  N   UNL d   1      15.494   2.038 -20.111  0.00  0.00     0.619 N 
ENDBRANCH  31  32
ENDBRANCH  30  31
ENDBRANCH  29  30
ENDBRANCH  28  29
ENDBRANCH  27  28
ENDBRANCH  26  27
ENDBRANCH  25  26
ENDBRANCH   6  25
TORSDOF 13
