REMARK  9 active torsions:
REMARK  status: ('A' for Active; 'I' for Inactive)
REMARK    1  A    between atoms: O_2  and  C_3 
REMARK    2  A    between atoms: C_8  and  N_9 
REMARK    3  A    between atoms: N_12  and  C_13 
REMARK    4  A    between atoms: C_13  and  C_14 
REMARK    5  A    between atoms: C_14  and  C_15 
REMARK    6  A    between atoms: C_15  and  C_16 
REMARK    7  A    between atoms: C_16  and  N_17 
REMARK    8  A    between atoms: C_19  and  C_20 
REMARK    9  A    between atoms: C_23  and  C_24 
ROOT
ATOM      1  C   UNL d   1       8.871   2.779 -14.771  0.00  0.00     0.129 C 
ENDROOT
BRANCH   1   2
ATOM      2  C   UNL d   1       7.532   2.048 -15.004  0.00  0.00     0.029 C 
BRANCH   2   3
ATOM      3  C   UNL d   1       7.601   0.972 -16.100  0.00  0.00     0.037 C 
BRANCH   3   4
ATOM      4  C   UNL d   1       6.244   0.269 -16.298  0.00  0.00     0.251 C 
BRANCH   4   5
ATOM      5  N   UNL d   1       6.130  -0.300 -17.642  0.00  0.00     0.141 N 
ATOM      6  C   UNL d   1       4.718  -0.407 -18.035  0.00  0.00     0.274 C 
ATOM      7  C   UNL d   1       4.584  -1.005 -19.448  0.00  0.00     0.137 C 
ATOM      8  N   UNL d   1       5.259  -2.289 -19.501  0.00  0.00    -0.343 N 
ATOM      9  C   UNL d   1       6.634  -2.292 -19.038  0.00  0.00     0.137 C 
ATOM     10  C   UNL d   1       6.716  -1.643 -17.646  0.00  0.00     0.274 C 
BRANCH   8  11
ATOM     11  C   UNL d   1       4.606  -3.438 -19.979  0.00  0.00     0.079 A 
ATOM     12  C   UNL d   1       4.611  -4.665 -19.259  0.00  0.00     0.110 A 
ATOM     13  C   UNL d   1       3.914  -5.774 -19.802  0.00  0.00     0.026 A 
ATOM     14  C   UNL d   1       3.233  -5.676 -21.030  0.00  0.00     0.002 A 
ATOM     15  C   UNL d   1       3.236  -4.462 -21.733  0.00  0.00     0.002 A 
ATOM     16  C   UNL d   1       3.916  -3.352 -21.206  0.00  0.00     0.019 A 
BRANCH  12  17
ATOM     17  O   UNL d   1       5.284  -4.716 -18.049  0.00  0.00    -0.327 OA
ATOM     18  C   UNL d   1       5.185  -5.897 -17.266  0.00  0.00     0.181 C 
ENDBRANCH  12  17
ENDBRANCH   8  11
ENDBRANCH   4   5
ENDBRANCH   3   4
ENDBRANCH   2   3
ENDBRANCH   1   2
BRANCH   1  19
ATOM     19  N   UNL d   1       8.781   3.804 -13.741  0.00  0.00    -0.231 N 
ATOM     20  N   UNL d   1       7.862   4.789 -13.840  0.00  0.00    -0.064 NA
ATOM     21  N   UNL d   1       8.032   5.591 -12.840  0.00  0.00    -0.129 NA
ATOM     22  C   UNL d   1       9.062   5.117 -12.039  0.00  0.00     0.123 A 
ATOM     23  C   UNL d   1       9.559   3.981 -12.622  0.00  0.00     0.118 A 
BRANCH  22  24
ATOM     24  C   UNL d   1       9.450   5.793 -10.809  0.00  0.00     0.021 A 
ATOM     25  C   UNL d   1       9.844   7.144 -10.822  0.00  0.00     0.002 A 
ATOM     26  C   UNL d   1      10.241   7.788  -9.632  0.00  0.00     0.000 A 
ATOM     27  C   UNL d   1      10.219   7.110  -8.387  0.00  0.00     0.000 A 
ATOM     28  C   UNL d   1       9.799   5.758  -8.397  0.00  0.00     0.000 A 
ATOM     29  C   UNL d   1       9.437   5.099  -9.587  0.00  0.00     0.002 A 
BRANCH  27  30
ATOM     30  C   UNL d   1      10.615   7.783  -7.120  0.00  0.00     0.000 A 
ATOM     31  C   UNL d   1      10.535   9.186  -6.981  0.00  0.00     0.000 A 
ATOM     32  C   UNL d   1      10.937   9.841  -5.798  0.00  0.00     0.000 A 
ATOM     33  C   UNL d   1      11.402   9.097  -4.700  0.00  0.00     0.000 A 
ATOM     34  C   UNL d   1      11.464   7.696  -4.806  0.00  0.00     0.000 A 
ATOM     35  C   UNL d   1      11.085   7.055  -6.000  0.00  0.00     0.000 A 
ENDBRANCH  27  30
ENDBRANCH  22  24
ENDBRANCH   1  19
TORSDOF 9
