REMARK  5 active torsions:
REMARK  status: ('A' for Active; 'I' for Inactive)
REMARK    1  A    between atoms: O_2  and  C_3 
REMARK    2  A    between atoms: C_12  and  C_13 
REMARK       I    between atoms: C_13  and  N_15 
REMARK    3  A    between atoms: N_15  and  C_16 
REMARK    4  A    between atoms: N_19  and  C_20 
REMARK    5  A    between atoms: C_20  and  C_21 
ROOT
ATOM      1  C   UNL d   1       9.260   6.753 -11.386  0.00  0.00     0.277 C 
ATOM      2  O   UNL d   1       9.701   7.761 -11.936  0.00  0.00    -0.266 OA
ATOM      3  N   UNL d   1       9.187   6.618 -10.052  0.00  0.00    -0.234 NA
ENDROOT
BRANCH   1   4
ATOM      4  C   UNL d   1       8.738   5.595 -12.190  0.00  0.00     0.080 A 
ATOM      5  C   UNL d   1       9.434   5.062 -13.314  0.00  0.00     0.099 A 
ATOM      6  C   UNL d   1       8.870   4.002 -14.049  0.00  0.00     0.024 A 
ATOM      7  C   UNL d   1       7.629   3.464 -13.677  0.00  0.00     0.002 A 
ATOM      8  C   UNL d   1       6.946   3.991 -12.558  0.00  0.00     0.000 A 
ATOM      9  C   UNL d   1       7.112   2.360 -14.390  0.00  0.00     0.000 A 
ATOM     10  C   UNL d   1       5.742   3.420 -12.137  0.00  0.00     0.000 A 
ATOM     11  C   UNL d   1       7.486   5.059 -11.816  0.00  0.00     0.007 A 
ATOM     12  C   UNL d   1       5.232   2.331 -12.846  0.00  0.00     0.000 A 
ATOM     13  C   UNL d   1       5.907   1.786 -13.945  0.00  0.00     0.000 A 
BRANCH   5  14
ATOM     14  O   UNL d   1      10.655   5.559 -13.647  0.00  0.00    -0.328 OA
ATOM     15  C   UNL d   1      11.323   5.131 -14.821  0.00  0.00     0.181 C 
ENDBRANCH   5  14
ENDBRANCH   1   4
BRANCH   3  16
ATOM     16  C   UNL d   1       9.800   7.524  -9.084  0.00  0.00     0.142 C 
ATOM     17  C   UNL d   1      10.895   6.777  -8.360  0.00  0.00     0.275 C 
ATOM     18  N   UNL d   1      10.918   7.379  -7.041  0.00  0.00     0.143 N 
ATOM     19  C   UNL d   1       9.517   7.483  -6.679  0.00  0.00     0.253 C 
ATOM     20  C   UNL d   1       8.888   7.987  -7.953  0.00  0.00     0.062 C 
BRANCH  18  21
ATOM     21  C   UNL d   1      11.634   6.593  -6.061  0.00  0.00     0.277 C 
BRANCH  21  22
ATOM     22  C   UNL d   1      11.819   7.321  -4.726  0.00  0.00     0.011 A 
ATOM     23  C   UNL d   1      12.195   6.595  -3.588  0.00  0.00    -0.002 A 
ATOM     24  C   UNL d   1      12.392   7.208  -2.343  0.00  0.00    -0.000 A 
ATOM     25  C   UNL d   1      12.255   8.599  -2.227  0.00  0.00    -0.000 A 
ATOM     26  C   UNL d   1      11.878   9.350  -3.355  0.00  0.00    -0.000 A 
ATOM     27  C   UNL d   1      11.684   8.723  -4.604  0.00  0.00    -0.002 A 
ENDBRANCH  21  22
ENDBRANCH  18  21
ENDBRANCH   3  16
TORSDOF 5
