REMARK  6 active torsions:
REMARK  status: ('A' for Active; 'I' for Inactive)
REMARK    1  A    between atoms: O_2  and  C_3 
REMARK    2  A    between atoms: C_6  and  N_7 
REMARK    3  A    between atoms: N_10  and  C_11 
REMARK    4  A    between atoms: C_11  and  C_12 
REMARK    5  A    between atoms: C_12  and  C_13 
REMARK    6  A    between atoms: C_19  and  C_20 
ROOT
ATOM      1  C   UNL d   1       9.659   6.110 -11.675  0.00  0.00     0.253 C 
ENDROOT
BRANCH   1   2
ATOM      2  N   UNL d   1       9.313   6.749 -10.413  0.00  0.00     0.141 N 
ATOM      3  C   UNL d   1      10.159   7.934 -10.217  0.00  0.00     0.274 C 
ATOM      4  C   UNL d   1       9.750   8.690  -8.940  0.00  0.00     0.137 C 
ATOM      5  N   UNL d   1       9.789   7.780  -7.796  0.00  0.00    -0.344 N 
ATOM      6  C   UNL d   1       9.033   6.549  -7.969  0.00  0.00     0.137 C 
ATOM      7  C   UNL d   1       9.454   5.841  -9.264  0.00  0.00     0.274 C 
BRANCH   5   8
ATOM      8  C   UNL d   1      10.492   8.075  -6.625  0.00  0.00     0.056 A 
ATOM      9  C   UNL d   1      11.016   7.042  -5.814  0.00  0.00     0.019 A 
ATOM     10  C   UNL d   1      11.722   7.333  -4.639  0.00  0.00     0.026 A 
ATOM     11  C   UNL d   1      11.903   8.669  -4.225  0.00  0.00     0.094 A 
ATOM     12  C   UNL d   1      11.387   9.707  -5.035  0.00  0.00     0.026 A 
ATOM     13  C   UNL d   1      10.692   9.411  -6.221  0.00  0.00     0.019 A 
BRANCH  11  14
ATOM     14  O   UNL d   1      12.576   9.014  -3.078  0.00  0.00    -0.328 OA
ATOM     15  C   UNL d   1      12.502   8.109  -1.990  0.00  0.00     0.181 C 
ENDBRANCH  11  14
ENDBRANCH   5   8
ENDBRANCH   1   2
BRANCH   1  16
ATOM     16  C   UNL d   1       8.660   5.004 -12.058  0.00  0.00     0.070 C 
BRANCH  16  17
ATOM     17  C   UNL d   1       8.877   4.476 -13.487  0.00  0.00     0.139 C 
ATOM     18  C   UNL d   1       8.006   3.263 -13.828  0.00  0.00     0.001 A 
ATOM     19  C   UNL d   1       8.560   2.187 -14.547  0.00  0.00    -0.021 A 
ATOM     20  C   UNL d   1       6.655   3.205 -13.427  0.00  0.00    -0.002 A 
ATOM     21  C   UNL d   1      10.028   2.213 -14.951  0.00  0.00     0.058 C 
ATOM     22  C   UNL d   1       7.777   1.055 -14.854  0.00  0.00     0.000 A 
ATOM     23  C   UNL d   1      10.615   3.629 -14.876  0.00  0.00     0.147 C 
ATOM     24  O   UNL d   1      10.274   4.195 -13.617  0.00  0.00    -0.352 OA
ATOM     25  C   UNL d   1       6.412   0.993 -14.454  0.00  0.00     0.059 A 
ATOM     26  C   UNL d   1       5.888   2.057 -13.700  0.00  0.00     0.005 A 
BRANCH  25  27
ATOM     27  C   UNL d   1       5.567  -0.190 -14.795  0.00  0.00     0.297 C 
ATOM     28  N   UNL d   1       5.814  -0.780 -15.962  0.00  0.00    -0.102 N 
ATOM     29  O   UNL d   1       4.660  -0.574 -14.050  0.00  0.00    -0.264 OA
ENDBRANCH  25  27
ENDBRANCH  16  17
ENDBRANCH   1  16
TORSDOF 6
