REMARK  2 active torsions:
REMARK  status: ('A' for Active; 'I' for Inactive)
REMARK    1  A    between atoms: O_2  and  C_3 
REMARK    2  A    between atoms: C_15  and  O_16 
ROOT
ATOM      1  C   UNL d   1      11.506   7.171  -3.258  0.00  0.00     0.094 A 
ATOM      2  C   UNL d   1      12.392   8.249  -3.386  0.00  0.00     0.024 A 
ATOM      3  C   UNL d   1      12.560   8.871  -4.628  0.00  0.00    -0.001 A 
ATOM      4  C   UNL d   1      11.833   8.434  -5.752  0.00  0.00     0.007 A 
ATOM      5  C   UNL d   1      10.965   7.326  -5.642  0.00  0.00    -0.020 A 
ATOM      6  C   UNL d   1      10.849   6.719  -4.403  0.00  0.00     0.020 A 
ATOM      7  C   UNL d   1      10.108   6.851  -6.801  0.00  0.00     0.064 C 
ATOM      8  C   UNL d   1      10.697   7.284  -8.151  0.00  0.00     0.246 C 
ATOM      9  C   UNL d   1       9.806   6.854  -9.348  0.00  0.00     0.007 A 
ATOM     10  C   UNL d   1       9.184   5.569  -9.434  0.00  0.00     0.027 A 
ATOM     11  C   UNL d   1       8.331   5.312 -10.543  0.00  0.00     0.153 A 
ATOM     12  O   UNL d   1       7.573   4.206 -10.697  0.00  0.00    -0.188 OA
ATOM     13  C   UNL d   1       8.165   6.203 -11.602  0.00  0.00     0.119 A 
ATOM     14  C   UNL d   1       8.844   7.431 -11.568  0.00  0.00     0.022 A 
ATOM     15  C   UNL d   1       9.607   7.759 -10.416  0.00  0.00    -0.020 A 
ATOM     16  C   UNL d   1      10.132   9.123 -10.263  0.00  0.00     0.061 C 
ATOM     17  C   UNL d   1      11.342   9.197  -9.379  0.00  0.00     0.256 C 
ATOM     18  N   UNL d   1      10.969   8.725  -8.064  0.00  0.00     0.144 N 
ATOM     19  C   UNL d   1      12.079   8.977  -7.129  0.00  0.00     0.277 C 
ENDROOT
BRANCH   1  20
ATOM     20  O   UNL d   1      11.244   6.681  -2.006  0.00  0.00    -0.328 OA
ATOM     21  C   UNL d   1       9.901   6.341  -1.638  0.00  0.00     0.181 C 
ENDBRANCH   1  20
BRANCH  13  22
ATOM     22  O   UNL d   1       7.308   5.880 -12.625  0.00  0.00    -0.326 OA
ATOM     23  C   UNL d   1       5.926   6.173 -12.407  0.00  0.00     0.181 C 
ENDBRANCH  13  22
TORSDOF 2
