REMARK  3 active torsions:
REMARK  status: ('A' for Active; 'I' for Inactive)
REMARK    1  A    between atoms: C_2  and  C_3 
REMARK    2  A    between atoms: N_13  and  C_14 
REMARK    3  A    between atoms: C_14  and  C_15 
ROOT
ATOM      1  O   UNL d   1       8.183   7.198 -11.818  0.00  0.00    -0.221 OA
ATOM      2  C   UNL d   1       8.485   5.963 -11.262  0.00  0.00     0.149 C 
ATOM      3  C   UNL d   1       9.944   5.948 -11.337  0.00  0.00     0.070 C 
ATOM      4  C   UNL d   1      10.680   6.949 -10.406  0.00  0.00     0.254 C 
ATOM      5  N   UNL d   1      10.431   6.665  -9.010  0.00  0.00     0.143 N 
ATOM      6  C   UNL d   1       9.012   6.802  -8.837  0.00  0.00     0.254 C 
ATOM      7  C   UNL d   1       8.254   5.814  -9.744  0.00  0.00     0.070 C 
ENDROOT
BRANCH   5   8
ATOM      8  C   UNL d   1      11.115   7.639  -8.170  0.00  0.00     0.297 C 
BRANCH   8   9
ATOM      9  C   UNL d   1      11.373   7.274  -6.753  0.00  0.00     0.115 A 
ATOM     10  C   UNL d   1      11.411   8.119  -5.606  0.00  0.00     0.037 A 
ATOM     11  C   UNL d   1      11.734   7.280  -4.506  0.00  0.00     0.104 A 
ATOM     12  C   UNL d   1      11.235   9.491  -5.350  0.00  0.00     0.003 A 
ATOM     13  N   UNL d   1      11.869   6.062  -5.095  0.00  0.00    -0.148 NA
ATOM     14  C   UNL d   1      11.886   7.756  -3.192  0.00  0.00     0.021 A 
ATOM     15  N   UNL d   1      11.719   6.053  -6.433  0.00  0.00    -0.150 NA
ATOM     16  C   UNL d   1      11.727   9.128  -2.965  0.00  0.00     0.002 A 
ATOM     17  C   UNL d   1      11.381   9.970  -4.039  0.00  0.00     0.000 A 
ENDBRANCH   8   9
ENDBRANCH   5   8
BRANCH   2  18
ATOM     18  C   UNL d   1       7.870   4.837 -12.080  0.00  0.00     0.006 A 
ATOM     19  C   UNL d   1       8.630   4.046 -12.981  0.00  0.00     0.010 A 
ATOM     20  C   UNL d   1       8.011   3.056 -13.751  0.00  0.00     0.068 A 
ATOM     21  C   UNL d   1       6.631   2.809 -13.596  0.00  0.00     0.068 A 
ATOM     22 CL   UNL d   1       8.998   2.054 -14.752  0.00  0.00    -0.082 Cl
ATOM     23  C   UNL d   1       5.871   3.588 -12.696  0.00  0.00     0.012 A 
ATOM     24 CL   UNL d   1       5.923   1.428 -14.342  0.00  0.00    -0.082 Cl
ATOM     25  C   UNL d   1       6.490   4.610 -11.963  0.00  0.00    -0.001 A 
ENDBRANCH   2  18
TORSDOF 3
