REMARK  7 active torsions:
REMARK  status: ('A' for Active; 'I' for Inactive)
REMARK    1  A    between atoms: C_2  and  O_5 
REMARK    2  A    between atoms: O_5  and  C_6 
REMARK       I    between atoms: C_6  and  N_8 
REMARK    3  A    between atoms: N_8  and  C_9 
REMARK    4  A    between atoms: C_12  and  C_13 
REMARK    5  A    between atoms: C_13  and  C_14 
REMARK    6  A    between atoms: C_14  and  N_15 
REMARK    7  A    between atoms: C_21  and  N_22 
ROOT
ATOM      1  C   UNL d   1       9.582   6.034  -9.992  0.00  0.00     0.035 C 
ENDROOT
BRANCH   1   2
ATOM      2  C   UNL d   1       9.702   7.126  -8.919  0.00  0.00     0.002 C 
ATOM      3  C   UNL d   1       9.302   6.560  -7.545  0.00  0.00     0.002 C 
ATOM      4  C   UNL d   1       9.445   7.620  -6.457  0.00  0.00     0.025 C 
ATOM      5  C   UNL d   1      10.867   8.206  -6.444  0.00  0.00     0.109 C 
ATOM      6  C   UNL d   1      11.249   8.791  -7.799  0.00  0.00     0.025 C 
ATOM      7  C   UNL d   1      11.125   7.734  -8.883  0.00  0.00     0.002 C 
BRANCH   5   8
ATOM      8  N   UNL d   1      10.964   9.285  -5.478  0.00  0.00    -0.214 NA
ATOM      9  C   UNL d   1      11.377   9.185  -4.159  0.00  0.00     0.383 C 
ATOM     10  O   UNL d   1      11.463  10.151  -3.415  0.00  0.00    -0.236 OA
BRANCH   9  11
ATOM     11  O   UNL d   1      11.564   7.884  -3.803  0.00  0.00    -0.289 OA
BRANCH  11  12
ATOM     12  C   UNL d   1      11.883   7.375  -2.487  0.00  0.00     0.103 C 
ATOM     13  C   UNL d   1      10.660   6.613  -1.998  0.00  0.00     0.030 C 
ATOM     14  C   UNL d   1      12.477   8.364  -1.470  0.00  0.00     0.030 C 
ATOM     15  C   UNL d   1      12.973   6.357  -2.777  0.00  0.00     0.030 C 
ENDBRANCH  11  12
ENDBRANCH   9  11
ENDBRANCH   5   8
ENDBRANCH   1   2
BRANCH   1  16
ATOM     16  C   UNL d   1       8.203   5.985 -10.673  0.00  0.00     0.251 C 
BRANCH  16  17
ATOM     17  N   UNL d   1       8.028   4.843 -11.580  0.00  0.00     0.142 N 
ATOM     18  C   UNL d   1       9.054   4.841 -12.605  0.00  0.00     0.277 C 
ATOM     19  C   UNL d   1       8.890   3.766 -13.652  0.00  0.00     0.009 A 
ATOM     20  C   UNL d   1       7.608   3.210 -13.869  0.00  0.00    -0.022 A 
ATOM     21  C   UNL d   1      10.010   3.322 -14.378  0.00  0.00     0.021 A 
ATOM     22  C   UNL d   1       6.438   3.645 -13.024  0.00  0.00     0.061 C 
ATOM     23  C   UNL d   1       7.473   2.189 -14.843  0.00  0.00    -0.003 A 
ATOM     24  C   UNL d   1       6.722   4.954 -12.245  0.00  0.00     0.255 C 
ATOM     25  C   UNL d   1       8.613   1.762 -15.569  0.00  0.00     0.023 A 
ATOM     26  C   UNL d   1       9.896   2.314 -15.352  0.00  0.00     0.126 A 
BRANCH  26  27
ATOM     27  N   UNL d   1      11.091   1.865 -16.136  0.00  0.00    -0.114 N 
ATOM     28  O   UNL d   1      11.108   0.719 -16.554  0.00  0.00    -0.532 OA
ATOM     29  O   UNL d   1      11.989   2.671 -16.332  0.00  0.00    -0.532 OA
ENDBRANCH  26  27
ENDBRANCH  16  17
ENDBRANCH   1  16
TORSDOF 7
