REMARK  6 active torsions:
REMARK  status: ('A' for Active; 'I' for Inactive)
REMARK    1  A    between atoms: O_2  and  N_3 
REMARK    2  A    between atoms: C_4  and  C_5 
REMARK    3  A    between atoms: C_4  and  C_19 
REMARK    4  A    between atoms: C_5  and  C_6 
REMARK    5  A    between atoms: C_6  and  N_7 
REMARK    6  A    between atoms: N_10  and  C_11 
ROOT
ATOM      1  C   UNL d   1       8.822   3.902 -14.099  0.00  0.00     0.257 C 
ENDROOT
BRANCH   1   2
ATOM      2  C   UNL d   1       8.508   2.393 -14.143  0.00  0.00     0.083 C 
BRANCH   2   3
ATOM      3  C   UNL d   1       8.846   1.754 -15.477  0.00  0.00     0.087 C 
ATOM      4  N   UNL d   1      10.061   1.772 -15.862  0.00  0.00    -0.136 NA
BRANCH   4   5
ATOM      5  O   UNL d   1      10.267   1.101 -17.076  0.00  0.00    -0.234 OA
ATOM      6  C   UNL d   1      11.624   1.261 -17.439  0.00  0.00     0.211 C 
ENDBRANCH   4   5
BRANCH   3   7
ATOM      7  C   UNL d   1       7.698   1.161 -16.213  0.00  0.00     0.016 A 
ATOM      8  C   UNL d   1       6.809   0.274 -15.562  0.00  0.00     0.004 A 
ATOM      9  C   UNL d   1       5.720  -0.290 -16.257  0.00  0.00     0.030 A 
ATOM     10  C   UNL d   1       5.516   0.022 -17.614  0.00  0.00     0.140 A 
ATOM     11  C   UNL d   1       6.396   0.899 -18.272  0.00  0.00     0.030 A 
ATOM     12  F   UNL d   1       4.476  -0.522 -18.290  0.00  0.00    -0.204 F 
ATOM     13  C   UNL d   1       7.477   1.471 -17.574  0.00  0.00     0.004 A 
ENDBRANCH   3   7
ENDBRANCH   2   3
ENDBRANCH   1   2
BRANCH   1  14
ATOM     14  N   UNL d   1       8.522   4.474 -12.790  0.00  0.00     0.141 N 
ATOM     15  C   UNL d   1       8.578   5.937 -12.904  0.00  0.00     0.274 C 
ATOM     16  C   UNL d   1       8.254   6.589 -11.553  0.00  0.00     0.138 C 
ATOM     17  N   UNL d   1       9.183   6.107 -10.537  0.00  0.00    -0.330 N 
ATOM     18  C   UNL d   1       9.234   4.662 -10.421  0.00  0.00     0.138 C 
ATOM     19  C   UNL d   1       9.533   4.056 -11.812  0.00  0.00     0.274 C 
BRANCH  17  20
ATOM     20  C   UNL d   1       9.916   6.961  -9.693  0.00  0.00     0.140 A 
ATOM     21  N   UNL d   1      10.255   6.502  -8.464  0.00  0.00    -0.227 NA
ATOM     22  C   UNL d   1      10.970   7.303  -7.647  0.00  0.00     0.101 A 
ATOM     23  C   UNL d   1      11.399   8.591  -8.013  0.00  0.00     0.021 A 
ATOM     24  C   UNL d   1      11.062   9.062  -9.291  0.00  0.00     0.005 A 
ATOM     25  C   UNL d   1      10.312   8.241 -10.146  0.00  0.00     0.037 A 
ENDBRANCH  17  20
ENDBRANCH   1  14
TORSDOF 6
