REMARK  3 active torsions:
REMARK  status: ('A' for Active; 'I' for Inactive)
REMARK    1  A    between atoms: C_2  and  C_4 
REMARK    2  A    between atoms: N_6  and  C_7 
REMARK    3  A    between atoms: C_16  and  N_17 
ROOT
ATOM      1  C   UNL d   1      10.055   0.828 -18.642  0.00  0.00     0.121 A 
ATOM      2  C   UNL d   1       8.938   0.358 -18.023  0.00  0.00     0.089 A 
ATOM      3  N   UNL d   1       8.332   0.881 -16.879  0.00  0.00    -0.305 N 
ATOM      4  C   UNL d   1       8.950   1.973 -16.215  0.00  0.00     0.069 A 
ATOM      5  C   UNL d   1       8.434   2.538 -15.011  0.00  0.00     0.037 A 
ATOM      6  C   UNL d   1       9.087   3.605 -14.366  0.00  0.00     0.086 A 
ATOM      7  C   UNL d   1      10.245   4.172 -14.942  0.00  0.00     0.156 A 
ATOM      8  F   UNL d   1      10.887   5.231 -14.385  0.00  0.00    -0.203 F 
ATOM      9  C   UNL d   1      10.756   3.636 -16.139  0.00  0.00     0.036 A 
ATOM     10  C   UNL d   1      10.127   2.543 -16.770  0.00  0.00     0.058 A 
ATOM     11  C   UNL d   1      10.716   2.017 -18.036  0.00  0.00     0.204 A 
ATOM     12  O   UNL d   1      11.707   2.550 -18.540  0.00  0.00    -0.286 OA
ENDROOT
BRANCH   3  13
ATOM     13  C   UNL d   1       7.108   0.319 -16.454  0.00  0.00     0.064 A 
ATOM     14  C   UNL d   1       6.060   0.089 -17.384  0.00  0.00     0.020 A 
ATOM     15  C   UNL d   1       4.844  -0.488 -16.966  0.00  0.00     0.031 A 
ATOM     16  C   UNL d   1       4.650  -0.829 -15.615  0.00  0.00     0.140 A 
ATOM     17  C   UNL d   1       5.690  -0.621 -14.688  0.00  0.00     0.031 A 
ATOM     18  F   UNL d   1       3.465  -1.337 -15.204  0.00  0.00    -0.204 F 
ATOM     19  C   UNL d   1       6.913  -0.069 -15.108  0.00  0.00     0.020 A 
ENDBRANCH   3  13
BRANCH   1  20
ATOM     20  C   UNL d   1      10.579   0.149 -19.837  0.00  0.00     0.215 C 
ATOM     21  O   UNL d   1      11.632   0.430 -20.410  0.00  0.00    -0.644 OA
ATOM     22  O   UNL d   1       9.800  -0.880 -20.290  0.00  0.00    -0.644 OA
ENDBRANCH   1  20
BRANCH   6  23
ATOM     23  N   UNL d   1       8.578   4.081 -13.141  0.00  0.00    -0.342 N 
ATOM     24  C   UNL d   1       7.149   4.224 -12.876  0.00  0.00     0.140 C 
ATOM     25  C   UNL d   1       6.858   5.661 -12.388  0.00  0.00     0.314 C 
ATOM     26  N   UNL d   1       7.688   5.983 -11.238  0.00  0.00     0.343 N 
ATOM     27  C   UNL d   1       9.099   5.923 -11.611  0.00  0.00     0.314 C 
ATOM     28  C   UNL d   1       9.456   4.487 -12.057  0.00  0.00     0.140 C 
ENDBRANCH   6  23
TORSDOF 3
