REMARK  4 active torsions:
REMARK  status: ('A' for Active; 'I' for Inactive)
REMARK    1  A    between atoms: C_4  and  C_5 
REMARK    2  A    between atoms: C_7  and  C_8 
REMARK    3  A    between atoms: C_8  and  N_9 
REMARK    4  A    between atoms: N_12  and  C_13 
ROOT
ATOM      1  N   UNL d   1       9.421   6.001 -10.186  0.00  0.00     0.141 N 
ATOM      2  C   UNL d   1       9.857   7.401 -10.222  0.00  0.00     0.274 C 
ATOM      3  C   UNL d   1      11.099   7.624  -9.345  0.00  0.00     0.137 C 
ATOM      4  N   UNL d   1      10.830   7.185  -7.970  0.00  0.00    -0.344 N 
ATOM      5  C   UNL d   1      10.274   5.839  -7.876  0.00  0.00     0.137 C 
ATOM      6  C   UNL d   1       9.065   5.676  -8.803  0.00  0.00     0.274 C 
ENDROOT
BRANCH   1   7
ATOM      7  C   UNL d   1       8.224   5.868 -11.023  0.00  0.00     0.251 C 
BRANCH   7   8
ATOM      8  C   UNL d   1       8.414   4.737 -12.010  0.00  0.00     0.038 A 
ATOM      9  C   UNL d   1       8.695   5.006 -13.476  0.00  0.00     0.024 A 
ATOM     10  C   UNL d   1       7.339   4.494 -13.056  0.00  0.00     0.007 A 
BRANCH   9  11
ATOM     11  C   UNL d   1       9.683   4.175 -14.248  0.00  0.00    -0.022 A 
ATOM     12  C   UNL d   1      10.603   4.744 -15.160  0.00  0.00    -0.004 A 
ATOM     13  C   UNL d   1      11.492   3.924 -15.887  0.00  0.00    -0.000 A 
ATOM     14  C   UNL d   1      11.470   2.526 -15.707  0.00  0.00    -0.000 A 
ATOM     15  C   UNL d   1      10.570   1.953 -14.789  0.00  0.00    -0.000 A 
ATOM     16  C   UNL d   1       9.695   2.776 -14.069  0.00  0.00    -0.004 A 
ENDBRANCH   9  11
ENDBRANCH   7   8
ENDBRANCH   1   7
BRANCH   4  17
ATOM     17  C   UNL d   1      11.067   7.969  -6.821  0.00  0.00     0.059 A 
ATOM     18  C   UNL d   1      11.244   7.387  -5.539  0.00  0.00     0.038 A 
ATOM     19  C   UNL d   1      11.472   8.224  -4.430  0.00  0.00     0.100 A 
ATOM     20  N   UNL d   1      11.521   9.565  -4.511  0.00  0.00    -0.242 NA
ATOM     21  C   UNL d   1      11.376  10.119  -5.725  0.00  0.00     0.100 A 
ATOM     22  C   UNL d   1      11.144   9.378  -6.896  0.00  0.00     0.038 A 
ENDBRANCH   4  17
TORSDOF 4
