REMARK  14 active torsions:
REMARK  status: ('A' for Active; 'I' for Inactive)
REMARK    1  A    between atoms: C_2  and  O_3 
REMARK    2  A    between atoms: O_3  and  C_4 
REMARK    3  A    between atoms: C_4  and  C_5 
REMARK    4  A    between atoms: C_5  and  O_6 
REMARK    5  A    between atoms: O_6  and  C_7 
REMARK    6  A    between atoms: C_7  and  C_8 
REMARK    7  A    between atoms: C_14  and  C_15 
REMARK       I    between atoms: C_15  and  N_17 
REMARK    8  A    between atoms: N_17  and  C_18 
REMARK    9  A    between atoms: C_18  and  C_19 
REMARK   10  A    between atoms: C_19  and  C_20 
REMARK   11  A    between atoms: C_20  and  C_21 
REMARK   12  A    between atoms: C_21  and  N_22 
REMARK   13  A    between atoms: N_25  and  C_26 
REMARK   14  A    between atoms: C_31  and  O_32 
ROOT
ATOM      1  C   UNL d   1       9.505   0.743 -15.440  0.00  0.00     0.278 C 
ATOM      2  O   UNL d   1      10.005   1.430 -14.549  0.00  0.00    -0.265 OA
ATOM      3  N   UNL d   1       8.247   0.277 -15.410  0.00  0.00    -0.234 NA
ENDROOT
BRANCH   3   4
ATOM      4  C   UNL d   1       7.281   0.532 -14.354  0.00  0.00     0.129 C 
BRANCH   4   5
ATOM      5  C   UNL d   1       6.707   1.946 -14.494  0.00  0.00     0.029 C 
BRANCH   5   6
ATOM      6  C   UNL d   1       5.749   2.321 -13.340  0.00  0.00     0.037 C 
BRANCH   6   7
ATOM      7  C   UNL d   1       5.421   3.822 -13.253  0.00  0.00     0.251 C 
BRANCH   7   8
ATOM      8  N   UNL d   1       6.612   4.686 -13.166  0.00  0.00     0.141 N 
ATOM      9  C   UNL d   1       6.251   5.982 -12.564  0.00  0.00     0.274 C 
ATOM     10  C   UNL d   1       7.460   6.952 -12.595  0.00  0.00     0.137 C 
ATOM     11  N   UNL d   1       8.658   6.337 -12.047  0.00  0.00    -0.343 N 
ATOM     12  C   UNL d   1       8.951   5.000 -12.508  0.00  0.00     0.137 C 
ATOM     13  C   UNL d   1       7.714   4.113 -12.400  0.00  0.00     0.274 C 
BRANCH  11  14
ATOM     14  C   UNL d   1       9.331   6.869 -10.928  0.00  0.00     0.079 A 
ATOM     15  C   UNL d   1       9.504   6.124  -9.747  0.00  0.00     0.110 A 
ATOM     16  C   UNL d   1      10.241   6.698  -8.665  0.00  0.00     0.026 A 
ATOM     17  C   UNL d   1      10.785   7.992  -8.792  0.00  0.00     0.002 A 
ATOM     18  C   UNL d   1      10.599   8.725  -9.963  0.00  0.00     0.002 A 
ATOM     19  C   UNL d   1       9.854   8.170 -11.030  0.00  0.00     0.019 A 
BRANCH  15  20
ATOM     20  O   UNL d   1       8.965   4.855  -9.694  0.00  0.00    -0.327 OA
ATOM     21  C   UNL d   1       8.588   4.366  -8.435  0.00  0.00     0.181 C 
ENDBRANCH  15  20
ENDBRANCH  11  14
ENDBRANCH   7   8
ENDBRANCH   6   7
ENDBRANCH   5   6
ENDBRANCH   4   5
ENDBRANCH   3   4
BRANCH   1  22
ATOM     22  C   UNL d   1      10.232   0.413 -16.689  0.00  0.00     0.096 A 
ATOM     23  C   UNL d   1      10.095  -0.685 -17.574  0.00  0.00     0.127 A 
ATOM     24  N   UNL d   1      10.944  -0.667 -18.574  0.00  0.00    -0.163 NA
ATOM     25  N   UNL d   1      11.675   0.478 -18.369  0.00  0.00    -0.228 N 
ATOM     26  C   UNL d   1      12.677   0.918 -19.172  0.00  0.00     0.100 A 
ATOM     27  C   UNL d   1      11.256   1.161 -17.207  0.00  0.00     0.089 A 
ATOM     28  C   UNL d   1      13.333   2.082 -18.841  0.00  0.00     0.019 A 
ATOM     29  C   UNL d   1      12.964   2.802 -17.677  0.00  0.00     0.010 A 
ATOM     30  C   UNL d   1      11.935   2.365 -16.873  0.00  0.00     0.018 A 
BRANCH  29  31
ATOM     31  C   UNL d   1      13.695   4.072 -17.317  0.00  0.00     0.169 C 
BRANCH  31  32
ATOM     32  O   UNL d   1      13.058   5.194 -17.884  0.00  0.00    -0.347 OA
BRANCH  32  33
ATOM     33  C   UNL d   1      13.645   6.407 -17.464  0.00  0.00     0.175 C 
BRANCH  33  34
ATOM     34  C   UNL d   1      12.922   7.557 -18.174  0.00  0.00     0.174 C 
BRANCH  34  35
ATOM     35  O   UNL d   1      13.400   7.711 -19.508  0.00  0.00    -0.352 OA
BRANCH  35  36
ATOM     36  C   UNL d   1      14.702   8.266 -19.647  0.00  0.00     0.142 C 
ATOM     37  C   UNL d   1      14.680   9.784 -19.404  0.00  0.00     0.035 C 
ENDBRANCH  35  36
ENDBRANCH  34  35
ENDBRANCH  33  34
ENDBRANCH  32  33
ENDBRANCH  31  32
ENDBRANCH  29  31
ENDBRANCH   1  22
TORSDOF 14
