REMARK  7 active torsions:
REMARK  status: ('A' for Active; 'I' for Inactive)
REMARK    1  A    between atoms: C_2  and  C_4 
REMARK       I    between atoms: C_4  and  N_6 
REMARK    2  A    between atoms: N_6  and  C_7 
REMARK    3  A    between atoms: C_11  and  C_12 
REMARK    4  A    between atoms: N_15  and  C_16 
REMARK    5  A    between atoms: C_16  and  C_17 
REMARK    6  A    between atoms: C_20  and  O_21 
REMARK    7  A    between atoms: O_21  and  C_22 
ROOT
ATOM      1  C   UNL d   1       6.950   2.867 -14.054  0.00  0.00     0.026 C 
ATOM      2  C   UNL d   1       8.474   2.654 -14.145  0.00  0.00     0.040 C 
ATOM      3  C   UNL d   1       9.234   3.940 -13.798  0.00  0.00     0.251 C 
ATOM      4  N   UNL d   1       8.784   4.435 -12.494  0.00  0.00     0.141 N 
ATOM      5  C   UNL d   1       7.383   4.852 -12.554  0.00  0.00     0.251 C 
ATOM      6  C   UNL d   1       6.518   3.628 -12.789  0.00  0.00     0.040 C 
ENDROOT
BRANCH   4   7
ATOM      7  C   UNL d   1       9.597   5.577 -12.103  0.00  0.00     0.277 C 
BRANCH   7   8
ATOM      8  C   UNL d   1       9.458   5.956 -10.641  0.00  0.00     0.011 A 
ATOM      9  C   UNL d   1      10.005   7.193 -10.250  0.00  0.00    -0.000 A 
ATOM     10  C   UNL d   1       9.919   7.615  -8.901  0.00  0.00     0.024 A 
ATOM     11  C   UNL d   1       9.276   6.790  -7.954  0.00  0.00     0.100 A 
ATOM     12  C   UNL d   1       8.697   5.567  -8.353  0.00  0.00     0.024 A 
ATOM     13  C   UNL d   1       8.812   5.140  -9.690  0.00  0.00    -0.000 A 
BRANCH  11  14
ATOM     14  O   UNL d   1       9.125   7.161  -6.637  0.00  0.00    -0.307 OA
BRANCH  14  15
ATOM     15  C   UNL d   1      10.156   7.826  -6.026  0.00  0.00     0.102 A 
ATOM     16  C   UNL d   1      10.932   7.183  -5.051  0.00  0.00     0.057 A 
ATOM     17  C   UNL d   1      11.970   7.890  -4.410  0.00  0.00     0.169 A 
ATOM     18  C   UNL d   1      12.267   9.207  -4.806  0.00  0.00     0.168 A 
ATOM     19  F   UNL d   1      12.721   7.274  -3.461  0.00  0.00    -0.202 F 
ATOM     20  C   UNL d   1      11.481   9.854  -5.774  0.00  0.00     0.034 A 
ATOM     21  F   UNL d   1      13.369   9.829  -4.300  0.00  0.00    -0.202 F 
ATOM     22  C   UNL d   1      10.384   9.155  -6.376  0.00  0.00     0.027 A 
ENDBRANCH  14  15
ENDBRANCH  11  14
ENDBRANCH   7   8
ENDBRANCH   4   7
BRANCH   1  23
ATOM     23  C   UNL d   1       6.198   1.551 -14.300  0.00  0.00    -0.021 A 
ATOM     24  C   UNL d   1       5.229   1.109 -13.388  0.00  0.00    -0.004 A 
ATOM     25  C   UNL d   1       4.492  -0.072 -13.644  0.00  0.00     0.001 A 
ATOM     26  C   UNL d   1       4.749  -0.827 -14.797  0.00  0.00     0.019 A 
ATOM     27  C   UNL d   1       5.690  -0.384 -15.739  0.00  0.00     0.084 A 
ATOM     28  C   UNL d   1       6.418   0.816 -15.495  0.00  0.00     0.015 A 
BRANCH  27  29
ATOM     29  N   UNL d   1       5.872  -1.206 -16.875  0.00  0.00    -0.212 NA
ATOM     30  C   UNL d   1       6.302  -0.869 -18.103  0.00  0.00     0.255 C 
ATOM     31  O   UNL d   1       6.660   0.258 -18.438  0.00  0.00    -0.270 OA
BRANCH  30  32
ATOM     32  C   UNL d   1       6.301  -2.013 -19.122  0.00  0.00     0.081 C 
ATOM     33  C   UNL d   1       7.736  -2.341 -19.562  0.00  0.00     0.010 C 
ATOM     34  C   UNL d   1       5.405  -1.659 -20.320  0.00  0.00     0.010 C 
ENDBRANCH  30  32
ENDBRANCH  27  29
ENDBRANCH   1  23
TORSDOF 7
