REMARK  9 active torsions:
REMARK  status: ('A' for Active; 'I' for Inactive)
REMARK    1  A    between atoms: C_5  and  O_6 
REMARK    2  A    between atoms: O_6  and  C_7 
REMARK    3  A    between atoms: C_7  and  C_8 
REMARK    4  A    between atoms: C_8  and  N_9 
REMARK    5  A    between atoms: N_9  and  C_10 
REMARK    6  A    between atoms: C_10  and  C_11 
REMARK    7  A    between atoms: C_11  and  C_12 
REMARK    8  A    between atoms: C_12  and  O_13 
REMARK    9  A    between atoms: O_13  and  C_14 
ROOT
ATOM      1  C   UNL d   1       9.745   6.956 -10.733  0.00  0.00     0.323 C 
ENDROOT
BRANCH   1   2
ATOM      2  C   UNL d   1       8.675   5.952 -11.188  0.00  0.00     0.187 C 
BRANCH   2   3
ATOM      3  O   UNL d   1       9.109   5.385 -12.411  0.00  0.00    -0.329 OA
BRANCH   3   4
ATOM      4  C   UNL d   1       8.333   4.394 -12.965  0.00  0.00     0.095 A 
ATOM      5  C   UNL d   1       6.950   4.231 -12.709  0.00  0.00     0.024 A 
ATOM      6  C   UNL d   1       6.234   3.182 -13.324  0.00  0.00    -0.001 A 
ATOM      7  C   UNL d   1       6.885   2.282 -14.192  0.00  0.00    -0.011 A 
ATOM      8  C   UNL d   1       6.115   1.129 -14.818  0.00  0.00     0.032 C 
ATOM      9  C   UNL d   1       8.266   2.444 -14.448  0.00  0.00     0.056 A 
ATOM     10  C   UNL d   1       8.973   3.503 -13.848  0.00  0.00     0.035 A 
ATOM     11 CL   UNL d   1       9.114   1.345 -15.477  0.00  0.00    -0.083 Cl
ENDBRANCH   3   4
ENDBRANCH   2   3
ENDBRANCH   1   2
BRANCH   1  12
ATOM     12  N   UNL d   1       9.486   7.410  -9.384  0.00  0.00     0.342 N 
BRANCH  12  13
ATOM     13  C   UNL d   1      10.387   8.452  -8.989  0.00  0.00     0.293 C 
BRANCH  13  14
ATOM     14  C   UNL d   1      10.142   8.723  -7.497  0.00  0.00     0.071 C 
BRANCH  14  15
ATOM     15  C   UNL d   1      11.315   9.535  -6.858  0.00  0.00     0.151 C 
BRANCH  15  16
ATOM     16  O   UNL d   1      11.167   9.950  -5.497  0.00  0.00    -0.331 OA
BRANCH  16  17
ATOM     17  C   UNL d   1      11.525   9.029  -4.521  0.00  0.00     0.094 A 
ATOM     18  C   UNL d   1      11.854   9.520  -3.233  0.00  0.00     0.024 A 
ATOM     19  C   UNL d   1      12.263   8.640  -2.210  0.00  0.00     0.002 A 
ATOM     20  C   UNL d   1      12.259   7.260  -2.432  0.00  0.00     0.000 A 
ATOM     21  C   UNL d   1      11.893   6.762  -3.694  0.00  0.00     0.002 A 
ATOM     22  C   UNL d   1      11.547   7.621  -4.742  0.00  0.00     0.024 A 
ENDBRANCH  16  17
ENDBRANCH  15  16
ENDBRANCH  14  15
ENDBRANCH  13  14
ENDBRANCH  12  13
ENDBRANCH   1  12
TORSDOF 9
