REMARK  8 active torsions:
REMARK  status: ('A' for Active; 'I' for Inactive)
REMARK    1  A    between atoms: O_2  and  C_3 
REMARK    2  A    between atoms: C_6  and  O_7 
REMARK    3  A    between atoms: O_7  and  C_8 
REMARK    4  A    between atoms: C_8  and  C_9 
REMARK    5  A    between atoms: C_9  and  C_10 
REMARK    6  A    between atoms: C_10  and  C_11 
REMARK    7  A    between atoms: C_11  and  N_12 
REMARK       I    between atoms: N_15  and  C_16 
REMARK    8  A    between atoms: C_16  and  C_18 
ROOT
ATOM      1  N   UNL d   1       9.521   5.892 -11.623  0.00  0.00     0.141 N 
ATOM      2  C   UNL d   1       8.888   7.205 -11.652  0.00  0.00     0.274 C 
ATOM      3  C   UNL d   1       9.681   8.223 -10.792  0.00  0.00     0.140 C 
ATOM      4  N   UNL d   1       9.847   7.707  -9.411  0.00  0.00    -0.311 N 
ATOM      5  C   UNL d   1       9.590   8.446  -8.304  0.00  0.00     0.275 C 
ATOM      6  O   UNL d   1       8.912   9.458  -8.343  0.00  0.00    -0.266 OA
ATOM      7  C   UNL d   1      10.404   6.354  -9.381  0.00  0.00     0.140 C 
ATOM      8  C   UNL d   1       9.563   5.428 -10.243  0.00  0.00     0.274 C 
ENDROOT
BRANCH   1   9
ATOM      9  C   UNL d   1       8.740   4.944 -12.401  0.00  0.00     0.251 C 
BRANCH   9  10
ATOM     10  C   UNL d   1       9.669   3.876 -13.010  0.00  0.00     0.038 C 
BRANCH  10  11
ATOM     11  C   UNL d   1       8.962   3.267 -14.225  0.00  0.00     0.035 C 
BRANCH  11  12
ATOM     12  C   UNL d   1       9.823   2.177 -14.903  0.00  0.00     0.149 C 
BRANCH  12  13
ATOM     13  O   UNL d   1       9.150   1.614 -16.024  0.00  0.00    -0.331 OA
BRANCH  13  14
ATOM     14  C   UNL d   1       7.977   0.926 -15.809  0.00  0.00     0.094 A 
ATOM     15  C   UNL d   1       7.246   0.525 -16.953  0.00  0.00     0.026 A 
ATOM     16  C   UNL d   1       5.998  -0.115 -16.821  0.00  0.00     0.026 A 
ATOM     17  C   UNL d   1       5.452  -0.347 -15.526  0.00  0.00     0.094 A 
ATOM     18  C   UNL d   1       6.187   0.053 -14.396  0.00  0.00     0.026 A 
ATOM     19  C   UNL d   1       7.455   0.645 -14.522  0.00  0.00     0.026 A 
BRANCH  17  20
ATOM     20  O   UNL d   1       4.235  -0.951 -15.296  0.00  0.00    -0.328 OA
ATOM     21  C   UNL d   1       3.581  -1.560 -16.397  0.00  0.00     0.181 C 
ENDBRANCH  17  20
ENDBRANCH  13  14
ENDBRANCH  12  13
ENDBRANCH  11  12
ENDBRANCH  10  11
ENDBRANCH   9  10
ENDBRANCH   1   9
BRANCH   5  22
ATOM     22  C   UNL d   1      10.242   8.156  -7.008  0.00  0.00     0.137 A 
ATOM     23  N   UNL d   1      10.518   9.227  -6.169  0.00  0.00    -0.241 NA
ATOM     24  C   UNL d   1      11.138   8.817  -4.997  0.00  0.00     0.082 A 
ATOM     25  C   UNL d   1      11.245   7.405  -5.146  0.00  0.00     0.019 A 
ATOM     26  C   UNL d   1      11.586   9.488  -3.848  0.00  0.00     0.019 A 
ATOM     27  C   UNL d   1      10.677   7.003  -6.366  0.00  0.00     0.025 A 
ATOM     28  C   UNL d   1      11.869   6.674  -4.094  0.00  0.00     0.002 A 
ATOM     29  C   UNL d   1      12.326   7.327  -2.945  0.00  0.00     0.000 A 
ATOM     30  C   UNL d   1      12.194   8.725  -2.816  0.00  0.00     0.002 A 
ENDBRANCH   5  22
TORSDOF 8
