REMARK  3 active torsions:
REMARK  status: ('A' for Active; 'I' for Inactive)
REMARK    1  A    between atoms: O_2  and  C_3 
REMARK    2  A    between atoms: C_6  and  C_7 
REMARK    3  A    between atoms: C_7  and  N_8 
ROOT
ATOM      1  N   UNL d   1       9.850   6.821 -11.383  0.00  0.00     0.141 N 
ATOM      2  C   UNL d   1       8.887   5.831 -10.886  0.00  0.00     0.251 C 
ATOM      3  C   UNL d   1       9.092   4.500 -11.601  0.00  0.00     0.043 C 
ATOM      4  C   UNL d   1       8.951   4.614 -13.111  0.00  0.00     0.060 C 
ATOM      5  C   UNL d   1       7.516   5.080 -13.467  0.00  0.00     0.012 C 
ATOM      6  C   UNL d   1       6.452   4.029 -13.135  0.00  0.00     0.027 C 
ATOM      7  C   UNL d   1       6.826   2.693 -13.721  0.00  0.00    -0.019 A 
ATOM      8  C   UNL d   1       5.816   1.741 -13.867  0.00  0.00    -0.004 A 
ATOM      9  C   UNL d   1       6.051   0.483 -14.436  0.00  0.00    -0.000 A 
ATOM     10  C   UNL d   1       7.362   0.154 -14.818  0.00  0.00     0.000 A 
ATOM     11  C   UNL d   1       8.418   1.064 -14.611  0.00  0.00     0.003 A 
ATOM     12  C   UNL d   1       8.164   2.346 -14.065  0.00  0.00     0.031 A 
ATOM     13  C   UNL d   1       9.291   3.262 -13.801  0.00  0.00     0.172 C 
ATOM     14  O   UNL d   1      10.453   2.956 -14.094  0.00  0.00    -0.291 OA
ATOM     15  C   UNL d   1       9.964   5.662 -13.557  0.00  0.00     0.043 C 
ATOM     16  C   UNL d   1       9.631   7.025 -12.832  0.00  0.00     0.251 C 
ENDROOT
BRANCH   1  17
ATOM     17  C   UNL d   1       9.693   8.104 -10.687  0.00  0.00     0.277 C 
BRANCH  17  18
ATOM     18  C   UNL d   1      10.041   8.108  -9.197  0.00  0.00     0.011 A 
ATOM     19  C   UNL d   1       9.221   7.479  -8.227  0.00  0.00    -0.000 A 
ATOM     20  C   UNL d   1       9.623   7.442  -6.882  0.00  0.00     0.024 A 
ATOM     21  C   UNL d   1      10.782   8.131  -6.470  0.00  0.00     0.094 A 
ATOM     22  C   UNL d   1      11.567   8.806  -7.447  0.00  0.00     0.024 A 
ATOM     23  C   UNL d   1      11.199   8.784  -8.795  0.00  0.00    -0.000 A 
BRANCH  21  24
ATOM     24  O   UNL d   1      11.084   8.112  -5.122  0.00  0.00    -0.328 OA
ATOM     25  C   UNL d   1      11.933   9.146  -4.637  0.00  0.00     0.181 C 
ENDBRANCH  21  24
ENDBRANCH  17  18
ENDBRANCH   1  17
TORSDOF 3
