REMARK  6 active torsions:
REMARK  status: ('A' for Active; 'I' for Inactive)
REMARK    1  A    between atoms: C_2  and  C_3 
REMARK       I    between atoms: C_2  and  N_5 
REMARK    2  A    between atoms: N_5  and  C_6 
REMARK    3  A    between atoms: C_9  and  C_10 
REMARK    4  A    between atoms: C_10  and  C_11 
REMARK    5  A    between atoms: C_11  and  N_12 
REMARK    6  A    between atoms: N_15  and  C_16 
ROOT
ATOM      1  N   UNL d   1       7.799   6.252 -12.137  0.00  0.00     0.141 N 
ATOM      2  C   UNL d   1       8.704   5.966 -13.244  0.00  0.00     0.274 C 
ATOM      3  C   UNL d   1       9.134   4.511 -13.268  0.00  0.00     0.138 C 
ATOM      4  N   UNL d   1       7.946   3.662 -13.268  0.00  0.00    -0.330 N 
ATOM      5  C   UNL d   1       6.896   3.946 -12.262  0.00  0.00     0.138 C 
ATOM      6  C   UNL d   1       6.564   5.449 -12.242  0.00  0.00     0.274 C 
ENDROOT
BRANCH   1   7
ATOM      7  C   UNL d   1       8.435   6.074 -10.839  0.00  0.00     0.250 C 
BRANCH   7   8
ATOM      8  C   UNL d   1       9.745   6.869 -10.703  0.00  0.00     0.035 C 
BRANCH   8   9
ATOM      9  C   UNL d   1       9.906   7.429  -9.300  0.00  0.00     0.002 C 
ATOM     10  C   UNL d   1       9.784   6.343  -8.209  0.00  0.00     0.002 C 
ATOM     11  C   UNL d   1       9.967   6.950  -6.825  0.00  0.00     0.024 C 
ATOM     12  C   UNL d   1      11.318   7.666  -6.728  0.00  0.00     0.106 C 
ATOM     13  C   UNL d   1      11.452   8.751  -7.807  0.00  0.00     0.024 C 
ATOM     14  C   UNL d   1      11.246   8.175  -9.206  0.00  0.00     0.002 C 
BRANCH  12  15
ATOM     15  N   UNL d   1      11.466   8.281  -5.421  0.00  0.00    -0.238 NA
ATOM     16  C   UNL d   1      11.776   7.643  -4.284  0.00  0.00     0.285 C 
ATOM     17  O   UNL d   1      11.908   6.425  -4.205  0.00  0.00    -0.268 OA
BRANCH  16  18
ATOM     18  C   UNL d   1      11.963   8.493  -3.031  0.00  0.00     0.271 C 
ATOM     19  O   UNL d   1      11.453   9.803  -3.235  0.00  0.00    -0.210 OA
ENDBRANCH  16  18
ENDBRANCH  12  15
ENDBRANCH   8   9
ENDBRANCH   7   8
ENDBRANCH   1   7
BRANCH   4  20
ATOM     20  C   UNL d   1       7.854   2.586 -14.189  0.00  0.00     0.138 A 
ATOM     21  C   UNL d   1       8.950   1.983 -14.818  0.00  0.00     0.036 A 
ATOM     22  C   UNL d   1       8.759   0.920 -15.680  0.00  0.00     0.095 A 
ATOM     23  C   UNL d   1      10.443   2.208 -14.678  0.00  0.00     0.064 C 
ATOM     24  C   UNL d   1       7.475   0.445 -15.954  0.00  0.00     0.045 A 
ATOM     25  O   UNL d   1       9.938   0.400 -16.176  0.00  0.00    -0.331 OA
ATOM     26  C   UNL d   1       6.422   1.083 -15.271  0.00  0.00     0.103 A 
ATOM     27  N   UNL d   1       6.594   2.117 -14.415  0.00  0.00    -0.228 NA
ATOM     28  C   UNL d   1      11.000   1.242 -15.721  0.00  0.00     0.154 C 
ENDBRANCH   4  20
TORSDOF 6
