REMARK  7 active torsions:
REMARK  status: ('A' for Active; 'I' for Inactive)
REMARK    1  A    between atoms: N_2  and  C_3 
REMARK    2  A    between atoms: C_5  and  O_6 
REMARK    3  A    between atoms: C_8  and  C_9 
REMARK       I    between atoms: C_9  and  N_11 
REMARK    4  A    between atoms: N_11  and  C_12 
REMARK    5  A    between atoms: C_12  and  C_13 
REMARK    6  A    between atoms: N_16  and  C_17 
REMARK    7  A    between atoms: C_17  and  C_18 
ROOT
ATOM      1  C   UNL d   1       8.669   6.222 -12.118  0.00  0.00     0.277 C 
ATOM      2  O   UNL d   1       8.166   7.297 -12.447  0.00  0.00    -0.266 OA
ATOM      3  N   UNL d   1       9.606   6.087 -11.174  0.00  0.00    -0.234 NA
ENDROOT
BRANCH   3   4
ATOM      4  C   UNL d   1      10.267   7.220 -10.531  0.00  0.00     0.131 C 
BRANCH   4   5
ATOM      5  C   UNL d   1       9.745   7.443  -9.125  0.00  0.00     0.060 C 
ATOM      6  C   UNL d   1      10.352   8.669  -8.433  0.00  0.00     0.253 C 
ATOM      7  N   UNL d   1      10.380   8.297  -7.024  0.00  0.00     0.141 N 
ATOM      8  C   UNL d   1      10.777   6.898  -7.091  0.00  0.00     0.251 C 
ATOM      9  C   UNL d   1      10.027   6.260  -8.216  0.00  0.00     0.039 C 
BRANCH   7  10
ATOM     10  C   UNL d   1      11.313   9.115  -6.223  0.00  0.00     0.277 C 
BRANCH  10  11
ATOM     11  C   UNL d   1      11.607   8.622  -4.795  0.00  0.00     0.011 A 
ATOM     12  C   UNL d   1      11.962   7.274  -4.522  0.00  0.00    -0.002 A 
ATOM     13  C   UNL d   1      12.151   6.822  -3.229  0.00  0.00    -0.000 A 
ATOM     14  C   UNL d   1      12.122   7.748  -2.189  0.00  0.00    -0.000 A 
ATOM     15  C   UNL d   1      11.875   9.109  -2.418  0.00  0.00    -0.000 A 
ATOM     16  C   UNL d   1      11.576   9.556  -3.721  0.00  0.00    -0.002 A 
ENDBRANCH  10  11
ENDBRANCH   7  10
ENDBRANCH   4   5
ENDBRANCH   3   4
BRANCH   1  17
ATOM     17  C   UNL d   1       8.286   4.957 -12.816  0.00  0.00     0.081 A 
ATOM     18  C   UNL d   1       9.160   4.335 -13.745  0.00  0.00     0.100 A 
ATOM     19  C   UNL d   1       8.724   3.153 -14.401  0.00  0.00     0.044 A 
ATOM     20  C   UNL d   1       7.452   2.603 -14.155  0.00  0.00     0.089 A 
ATOM     21  C   UNL d   1       6.614   3.257 -13.231  0.00  0.00     0.075 A 
ATOM     22  C   UNL d   1       7.015   4.423 -12.570  0.00  0.00     0.020 A 
ATOM     23 CL   UNL d   1       5.080   2.636 -12.809  0.00  0.00    -0.081 Cl
BRANCH  18  24
ATOM     24  O   UNL d   1      10.394   4.918 -13.971  0.00  0.00    -0.328 OA
ATOM     25  C   UNL d   1      11.281   4.302 -14.892  0.00  0.00     0.181 C 
ENDBRANCH  18  24
BRANCH  20  26
ATOM     26  N   UNL d   1       7.063   1.417 -14.805  0.00  0.00    -0.268 NA
ATOM     27  C   UNL d   1       6.853   0.190 -14.041  0.00  0.00     0.152 C 
ENDBRANCH  20  26
ENDBRANCH   1  17
TORSDOF 7
