REMARK  6 active torsions:
REMARK  status: ('A' for Active; 'I' for Inactive)
REMARK    1  A    between atoms: C_7  and  C_8 
REMARK    2  A    between atoms: C_8  and  C_10 
REMARK    3  A    between atoms: C_10  and  C_11 
REMARK    4  A    between atoms: C_11  and  C_12 
REMARK    5  A    between atoms: C_12  and  N_13 
REMARK    6  A    between atoms: C_16  and  C_18 
ROOT
ATOM      1  N   UNL d   1       9.542   5.989 -10.075  0.00  0.00     0.137 N 
ATOM      2  C   UNL d   1       9.698   6.884 -11.212  0.00  0.00     0.253 C 
ATOM      3  C   UNL d   1       9.748   6.045 -12.484  0.00  0.00     0.070 C 
ATOM      4  C   UNL d   1       8.492   5.199 -12.713  0.00  0.00     0.149 C 
ATOM      5  O   UNL d   1       7.364   6.060 -12.827  0.00  0.00    -0.221 OA
ATOM      6  C   UNL d   1       8.281   4.386 -11.440  0.00  0.00     0.070 C 
ATOM      7  C   UNL d   1       8.277   5.277 -10.191  0.00  0.00     0.253 C 
ENDROOT
BRANCH   1   8
ATOM      8  C   UNL d   1       9.542   6.821  -8.882  0.00  0.00     0.251 C 
BRANCH   8   9
ATOM      9  C   UNL d   1       9.820   5.977  -7.643  0.00  0.00     0.043 C 
BRANCH   9  10
ATOM     10  C   UNL d   1       9.788   6.749  -6.327  0.00  0.00     0.071 C 
BRANCH  10  11
ATOM     11  C   UNL d   1      10.925   7.770  -6.145  0.00  0.00     0.173 C 
ATOM     12  O   UNL d   1      11.423   8.368  -7.115  0.00  0.00    -0.291 OA
BRANCH  11  13
ATOM     13  C   UNL d   1      11.371   8.045  -4.781  0.00  0.00     0.030 A 
ATOM     14  C   UNL d   1      11.425   9.371  -4.286  0.00  0.00    -0.019 A 
ATOM     15  C   UNL d   1      11.862   9.590  -2.970  0.00  0.00    -0.004 A 
ATOM     16  C   UNL d   1      10.925  10.538  -5.115  0.00  0.00     0.031 C 
ATOM     17  C   UNL d   1      12.287   8.512  -2.172  0.00  0.00    -0.005 A 
ATOM     18  C   UNL d   1      12.253   7.203  -2.682  0.00  0.00    -0.022 A 
ATOM     19  C   UNL d   1      12.704   6.053  -1.841  0.00  0.00     0.031 C 
ATOM     20  C   UNL d   1      11.799   6.970  -3.984  0.00  0.00    -0.002 A 
ENDBRANCH  11  13
ENDBRANCH  10  11
ENDBRANCH   9  10
ENDBRANCH   8   9
ENDBRANCH   1   8
BRANCH   4  21
ATOM     21  C   UNL d   1       8.627   4.265 -13.948  0.00  0.00     0.005 A 
ATOM     22  C   UNL d   1       9.640   4.471 -14.929  0.00  0.00    -0.001 A 
ATOM     23  C   UNL d   1       9.744   3.620 -16.047  0.00  0.00     0.011 A 
ATOM     24  C   UNL d   1       8.853   2.549 -16.201  0.00  0.00     0.058 A 
ATOM     25  C   UNL d   1       7.848   2.326 -15.236  0.00  0.00     0.011 A 
ATOM     26 CL   UNL d   1       8.958   1.543 -17.599  0.00  0.00    -0.082 Cl
ATOM     27  C   UNL d   1       7.739   3.186 -14.122  0.00  0.00    -0.001 A 
ENDBRANCH   4  21
TORSDOF 6
