REMARK  6 active torsions:
REMARK  status: ('A' for Active; 'I' for Inactive)
REMARK    1  A    between atoms: O_2  and  C_3 
REMARK    2  A    between atoms: C_8  and  O_9 
REMARK    3  A    between atoms: C_14  and  C_15 
REMARK    4  A    between atoms: C_15  and  N_16 
REMARK    5  A    between atoms: C_19  and  C_20 
REMARK    6  A    between atoms: C_20  and  C_22 
ROOT
ATOM      1  C   UNL d   1       9.069   3.615 -12.546  0.00  0.00     0.251 C 
ENDROOT
BRANCH   1   2
ATOM      2  C   UNL d   1       9.672   3.476 -13.950  0.00  0.00     0.045 C 
ATOM      3  C   UNL d   1       9.457   2.045 -14.485  0.00  0.00     0.071 C 
ATOM      4  C   UNL d   1      10.017   1.850 -15.899  0.00  0.00     0.173 C 
ATOM      5  C   UNL d   1       9.958   3.026 -16.815  0.00  0.00     0.033 A 
ATOM      6  O   UNL d   1      10.467   0.750 -16.221  0.00  0.00    -0.291 OA
ATOM      7  C   UNL d   1       9.505   4.284 -16.355  0.00  0.00    -0.017 A 
ATOM      8  C   UNL d   1      10.370   2.917 -18.155  0.00  0.00     0.029 A 
ATOM      9  C   UNL d   1       9.470   5.385 -17.232  0.00  0.00     0.022 A 
ATOM     10  C   UNL d   1       9.099   4.509 -14.918  0.00  0.00     0.029 C 
ATOM     11  C   UNL d   1       9.856   5.276 -18.572  0.00  0.00     0.116 A 
ATOM     12  C   UNL d   1      10.318   4.020 -19.038  0.00  0.00     0.116 A 
BRANCH  11  13
ATOM     13  O   UNL d   1       9.852   6.376 -19.394  0.00  0.00    -0.326 OA
ATOM     14  C   UNL d   1       8.651   7.144 -19.402  0.00  0.00     0.181 C 
ENDBRANCH  11  13
BRANCH  12  15
ATOM     15  O   UNL d   1      10.738   3.841 -20.328  0.00  0.00    -0.326 OA
ATOM     16  C   UNL d   1       9.765   4.102 -21.331  0.00  0.00     0.181 C 
ENDBRANCH  12  15
ENDBRANCH   1   2
BRANCH   1  17
ATOM     17  N   UNL d   1       9.474   4.810 -11.836  0.00  0.00     0.137 N 
ATOM     18  C   UNL d   1       8.498   5.878 -12.028  0.00  0.00     0.251 C 
ATOM     19  C   UNL d   1       9.042   7.151 -11.391  0.00  0.00     0.043 C 
ATOM     20  C   UNL d   1       9.272   6.957  -9.875  0.00  0.00     0.066 C 
ATOM     21  C   UNL d   1      10.171   5.729  -9.678  0.00  0.00     0.043 C 
ATOM     22  C   UNL d   1       9.580   4.520 -10.401  0.00  0.00     0.251 C 
BRANCH  20  23
ATOM     23  C   UNL d   1       9.900   8.230  -9.272  0.00  0.00     0.173 C 
ATOM     24  O   UNL d   1      10.159   9.184  -9.993  0.00  0.00    -0.291 OA
BRANCH  23  25
ATOM     25  C   UNL d   1      10.264   8.235  -7.827  0.00  0.00     0.035 A 
ATOM     26  C   UNL d   1       9.810   7.244  -6.930  0.00  0.00     0.005 A 
ATOM     27  C   UNL d   1      10.287   7.239  -5.611  0.00  0.00     0.030 A 
ATOM     28  C   UNL d   1      11.110   8.283  -5.139  0.00  0.00     0.140 A 
ATOM     29  C   UNL d   1      11.508   9.313  -6.008  0.00  0.00     0.030 A 
ATOM     30  F   UNL d   1      11.499   8.311  -3.838  0.00  0.00    -0.204 F 
ATOM     31  C   UNL d   1      11.105   9.264  -7.353  0.00  0.00     0.005 A 
ENDBRANCH  23  25
ENDBRANCH  20  23
ENDBRANCH   1  17
TORSDOF 6
