REMARK  7 active torsions:
REMARK  status: ('A' for Active; 'I' for Inactive)
REMARK    1  A    between atoms: C_3  and  C_4 
REMARK    2  A    between atoms: N_15  and  C_16 
REMARK    3  A    between atoms: C_16  and  C_17 
REMARK    4  A    between atoms: C_17  and  C_18 
REMARK    5  A    between atoms: C_18  and  C_19 
REMARK    6  A    between atoms: C_19  and  N_20 
REMARK    7  A    between atoms: C_24  and  C_25 
ROOT
ATOM      1  O   UNL d   1      11.590   2.726 -14.869  0.00  0.00    -0.267 OA
ATOM      2  C   UNL d   1      11.412   2.240 -15.979  0.00  0.00     0.265 A 
ATOM      3  C   UNL d   1      11.879   2.871 -17.229  0.00  0.00     0.070 A 
ATOM      4  C   UNL d   1      11.696   2.231 -18.421  0.00  0.00     0.046 A 
ATOM      5  N   UNL d   1      11.041   0.994 -18.515  0.00  0.00    -0.285 N 
ATOM      6  C   UNL d   1      10.489   0.384 -17.357  0.00  0.00     0.333 A 
ATOM      7  O   UNL d   1       9.858  -0.673 -17.426  0.00  0.00    -0.246 OA
ATOM      8  N   UNL d   1      10.701   1.028 -16.126  0.00  0.00    -0.249 N 
ATOM      9  C   UNL d   1      10.840   0.253 -19.748  0.00  0.00     0.110 C 
ATOM     10  C   UNL d   1      11.620   0.781 -20.956  0.00  0.00     0.025 C 
ATOM     11  C   UNL d   1      11.527   2.298 -21.007  0.00  0.00     0.008 C 
ATOM     12  C   UNL d   1      12.182   2.850 -19.744  0.00  0.00     0.044 C 
ENDROOT
BRANCH   8  13
ATOM     13  C   UNL d   1      10.132   0.436 -14.911  0.00  0.00     0.114 C 
BRANCH  13  14
ATOM     14  C   UNL d   1       8.743   0.983 -14.477  0.00  0.00     0.027 C 
BRANCH  14  15
ATOM     15  C   UNL d   1       8.750   2.444 -14.013  0.00  0.00     0.037 C 
BRANCH  15  16
ATOM     16  C   UNL d   1       7.346   3.034 -13.816  0.00  0.00     0.250 C 
BRANCH  16  17
ATOM     17  N   UNL d   1       7.420   4.321 -13.079  0.00  0.00     0.137 N 
ATOM     18  C   UNL d   1       8.439   5.255 -13.592  0.00  0.00     0.255 C 
ATOM     19  C   UNL d   1       8.541   6.499 -12.692  0.00  0.00     0.057 C 
ATOM     20  C   UNL d   1       7.187   7.208 -12.654  0.00  0.00     0.009 C 
ATOM     21  C   UNL d   1       6.109   6.226 -12.173  0.00  0.00     0.036 C 
ATOM     22  C   UNL d   1       6.080   4.932 -13.019  0.00  0.00     0.250 C 
BRANCH  19  23
ATOM     23  C   UNL d   1       9.055   6.157 -11.284  0.00  0.00     0.000 A 
ATOM     24  C   UNL d   1       9.745   7.044 -10.382  0.00  0.00     0.015 A 
ATOM     25  C   UNL d   1       9.994   6.332  -9.170  0.00  0.00     0.081 A 
ATOM     26  C   UNL d   1      10.173   8.386 -10.443  0.00  0.00     0.001 A 
ATOM     27  N   UNL d   1       9.480   5.074  -9.356  0.00  0.00    -0.244 NA
ATOM     28  C   UNL d   1      10.660   6.919  -8.080  0.00  0.00     0.019 A 
ATOM     29  C   UNL d   1       8.925   4.966 -10.621  0.00  0.00     0.095 A 
ATOM     30  C   UNL d   1      11.101   8.250  -8.181  0.00  0.00     0.002 A 
ATOM     31  C   UNL d   1      10.856   8.983  -9.360  0.00  0.00     0.000 A 
ENDBRANCH  19  23
ENDBRANCH  16  17
ENDBRANCH  15  16
ENDBRANCH  14  15
ENDBRANCH  13  14
ENDBRANCH   8  13
BRANCH   3  32
ATOM     32  C   UNL d   1      12.598   4.167 -17.124  0.00  0.00     0.033 A 
ATOM     33  C   UNL d   1      13.933   4.280 -17.578  0.00  0.00     0.140 A 
ATOM     34  C   UNL d   1      14.606   5.514 -17.493  0.00  0.00     0.030 A 
ATOM     35  F   UNL d   1      14.580   3.202 -18.085  0.00  0.00    -0.204 F 
ATOM     36  C   UNL d   1      13.975   6.631 -16.912  0.00  0.00     0.002 A 
ATOM     37  C   UNL d   1      12.660   6.515 -16.416  0.00  0.00     0.000 A 
ATOM     38  C   UNL d   1      11.968   5.289 -16.536  0.00  0.00     0.002 A 
ENDBRANCH   3  32
TORSDOF 7
