REMARK  6 active torsions:
REMARK  status: ('A' for Active; 'I' for Inactive)
REMARK    1  A    between atoms: C_2  and  C_3 
REMARK    2  A    between atoms: C_2  and  C_20 
REMARK    3  A    between atoms: C_3  and  C_4 
REMARK    4  A    between atoms: C_4  and  C_5 
REMARK    5  A    between atoms: C_5  and  N_6 
REMARK    6  A    between atoms: C_9  and  C_11 
ROOT
ATOM      1  N   UNL d   1       9.669   6.248 -10.829  0.00  0.00     0.137 N 
ATOM      2  C   UNL d   1       8.599   6.775 -11.679  0.00  0.00     0.253 C 
ATOM      3  C   UNL d   1       8.611   6.069 -13.035  0.00  0.00     0.070 C 
ATOM      4  C   UNL d   1       8.495   4.536 -12.887  0.00  0.00     0.149 C 
ATOM      5  O   UNL d   1       7.230   4.287 -12.289  0.00  0.00    -0.221 OA
ATOM      6  C   UNL d   1       9.609   4.057 -11.948  0.00  0.00     0.070 C 
ATOM      7  C   UNL d   1       9.489   4.806 -10.617  0.00  0.00     0.253 C 
ENDROOT
BRANCH   1   8
ATOM      8  C   UNL d   1       9.789   7.028  -9.608  0.00  0.00     0.251 C 
BRANCH   8   9
ATOM      9  C   UNL d   1       8.915   6.493  -8.445  0.00  0.00     0.043 C 
BRANCH   9  10
ATOM     10  C   UNL d   1       8.860   7.309  -7.151  0.00  0.00     0.071 C 
BRANCH  10  11
ATOM     11  C   UNL d   1      10.019   8.285  -6.933  0.00  0.00     0.173 C 
ATOM     12  O   UNL d   1      10.204   9.183  -7.745  0.00  0.00    -0.291 OA
BRANCH  11  13
ATOM     13  C   UNL d   1      10.733   8.193  -5.631  0.00  0.00     0.035 A 
ATOM     14  C   UNL d   1      11.082   9.401  -4.977  0.00  0.00     0.005 A 
ATOM     15  C   UNL d   1      11.733   9.371  -3.727  0.00  0.00     0.030 A 
ATOM     16  C   UNL d   1      12.070   8.133  -3.140  0.00  0.00     0.140 A 
ATOM     17  C   UNL d   1      11.750   6.925  -3.799  0.00  0.00     0.030 A 
ATOM     18  F   UNL d   1      12.666   8.104  -1.923  0.00  0.00    -0.204 F 
ATOM     19  C   UNL d   1      11.081   6.959  -5.043  0.00  0.00     0.005 A 
ENDBRANCH  11  13
ENDBRANCH  10  11
ENDBRANCH   9  10
ENDBRANCH   8   9
ENDBRANCH   1   8
BRANCH   4  20
ATOM     20  C   UNL d   1       8.655   3.815 -14.219  0.00  0.00     0.006 A 
ATOM     21  C   UNL d   1       7.805   2.730 -14.570  0.00  0.00     0.009 A 
ATOM     22  C   UNL d   1       7.973   2.059 -15.799  0.00  0.00     0.058 A 
ATOM     23  C   UNL d   1       8.986   2.461 -16.695  0.00  0.00     0.011 A 
ATOM     24 CL   UNL d   1       6.889   0.786 -16.229  0.00  0.00    -0.082 Cl
ATOM     25  C   UNL d   1       9.851   3.510 -16.342  0.00  0.00     0.001 A 
ATOM     26  C   UNL d   1       9.693   4.173 -15.109  0.00  0.00    -0.002 A 
ENDBRANCH   4  20
TORSDOF 6
