REMARK  6 active torsions:
REMARK  status: ('A' for Active; 'I' for Inactive)
REMARK    1  A    between atoms: C_7  and  O_8 
REMARK    2  A    between atoms: O_8  and  C_9 
REMARK    3  A    between atoms: C_9  and  C_10 
REMARK    4  A    between atoms: C_10  and  C_11 
REMARK    5  A    between atoms: C_11  and  C_12 
REMARK    6  A    between atoms: C_12  and  C_15 
ROOT
ATOM      1  O   UNL d   1       8.670   5.825 -11.218  0.00  0.00    -0.331 OA
ENDROOT
BRANCH   1   2
ATOM      2  C   UNL d   1       8.416   4.865 -12.168  0.00  0.00     0.090 A 
ATOM      3  C   UNL d   1       7.091   4.678 -12.630  0.00  0.00     0.000 A 
ATOM      4  C   UNL d   1       6.826   3.733 -13.639  0.00  0.00    -0.003 A 
ATOM      5  C   UNL d   1       5.936   5.473 -12.054  0.00  0.00     0.033 C 
ATOM      6  C   UNL d   1       7.877   2.997 -14.219  0.00  0.00    -0.004 A 
ATOM      7  C   UNL d   1       9.199   3.187 -13.777  0.00  0.00    -0.020 A 
ATOM      8  C   UNL d   1      10.337   2.400 -14.399  0.00  0.00     0.031 C 
ATOM      9  C   UNL d   1       9.461   4.117 -12.749  0.00  0.00     0.020 A 
ENDBRANCH   1   2
BRANCH   1  10
ATOM     10  C   UNL d   1       9.316   5.386 -10.032  0.00  0.00     0.149 C 
BRANCH  10  11
ATOM     11  C   UNL d   1       9.591   6.621  -9.164  0.00  0.00     0.033 C 
BRANCH  11  12
ATOM     12  C   UNL d   1      10.201   6.285  -7.788  0.00  0.00     0.013 C 
BRANCH  12  13
ATOM     13  C   UNL d   1      10.615   7.482  -6.879  0.00  0.00     0.079 C 
ATOM     14  C   UNL d   1       9.406   8.411  -6.631  0.00  0.00     0.011 C 
ATOM     15  C   UNL d   1      11.077   6.912  -5.517  0.00  0.00     0.011 C 
BRANCH  13  16
ATOM     16  C   UNL d   1      11.781   8.299  -7.493  0.00  0.00     0.184 C 
ATOM     17  O   UNL d   1      12.313   8.041  -8.566  0.00  0.00    -0.647 OA
ATOM     18  O   UNL d   1      12.195   9.312  -6.678  0.00  0.00    -0.647 OA
ENDBRANCH  13  16
ENDBRANCH  12  13
ENDBRANCH  11  12
ENDBRANCH  10  11
ENDBRANCH   1  10
TORSDOF 6
