REMARK  9 active torsions:
REMARK  status: ('A' for Active; 'I' for Inactive)
REMARK       I    between atoms: C_2  and  N_3 
REMARK    1  A    between atoms: C_2  and  C_28 
REMARK    2  A    between atoms: N_3  and  C_4 
REMARK    3  A    between atoms: C_4  and  C_5 
REMARK    4  A    between atoms: C_5  and  C_6 
REMARK    5  A    between atoms: C_6  and  C_7 
REMARK    6  A    between atoms: C_7  and  N_8 
REMARK    7  A    between atoms: N_12  and  C_13 
REMARK    8  A    between atoms: C_13  and  C_14 
REMARK    9  A    between atoms: C_13  and  C_20 
ROOT
ATOM      1  N   UNL d   1       9.856   3.408 -14.742  0.00  0.00     0.139 N 
ATOM      2  C   UNL d   1      10.144   2.102 -15.348  0.00  0.00     0.252 C 
ATOM      3  C   UNL d   1      11.619   1.915 -15.781  0.00  0.00     0.071 C 
ATOM      4  C   UNL d   1      12.034   2.482 -17.163  0.00  0.00     0.253 C 
ATOM      5  N   UNL d   1      11.329   3.690 -17.605  0.00  0.00     0.145 N 
ATOM      6  C   UNL d   1      11.129   4.587 -16.473  0.00  0.00     0.286 C 
ATOM      7  C   UNL d   1       9.825   4.431 -15.765  0.00  0.00     0.285 C 
ENDROOT
BRANCH   1   8
ATOM      8  C   UNL d   1       8.598   3.384 -14.001  0.00  0.00     0.250 C 
BRANCH   8   9
ATOM      9  C   UNL d   1       8.183   4.713 -13.315  0.00  0.00     0.037 C 
BRANCH   9  10
ATOM     10  C   UNL d   1       9.064   5.066 -12.107  0.00  0.00     0.029 C 
BRANCH  10  11
ATOM     11  C   UNL d   1       8.705   6.417 -11.486  0.00  0.00     0.129 C 
BRANCH  11  12
ATOM     12  N   UNL d   1       9.511   6.649 -10.292  0.00  0.00    -0.234 NA
ATOM     13  C   UNL d   1      10.024   7.788  -9.880  0.00  0.00     0.281 C 
ATOM     14  O   UNL d   1      10.091   8.786 -10.649  0.00  0.00    -0.265 OA
BRANCH  13  15
ATOM     15  C   UNL d   1      10.506   7.922  -8.503  0.00  0.00     0.087 A 
ATOM     16  S   UNL d   1      10.332   6.523  -7.470  0.00  0.00    -0.082 SA
ATOM     17  C   UNL d   1      11.057   7.375  -6.115  0.00  0.00     0.030 A 
ATOM     18  C   UNL d   1      11.378   8.720  -6.475  0.00  0.00     0.007 A 
ATOM     19  C   UNL d   1      11.316   6.872  -4.826  0.00  0.00     0.006 A 
ATOM     20  C   UNL d   1      11.052   9.009  -7.850  0.00  0.00     0.012 A 
ATOM     21  C   UNL d   1      11.956   9.529  -5.463  0.00  0.00     0.001 A 
ATOM     22  C   UNL d   1      12.217   9.032  -4.168  0.00  0.00     0.000 A 
ATOM     23  C   UNL d   1      11.895   7.701  -3.850  0.00  0.00     0.001 A 
ENDBRANCH  13  15
ENDBRANCH  11  12
ENDBRANCH  10  11
ENDBRANCH   9  10
ENDBRANCH   8   9
ENDBRANCH   1   8
BRANCH   5  24
ATOM     24  C   UNL d   1      11.979   4.319 -18.781  0.00  0.00     0.264 C 
BRANCH  24  25
ATOM     25  C   UNL d   1      13.328   5.033 -18.483  0.00  0.00     0.013 A 
ATOM     26  C   UNL d   1      14.394   4.879 -19.434  0.00  0.00    -0.002 A 
ATOM     27  C   UNL d   1      15.635   5.554 -19.217  0.00  0.00    -0.000 A 
ATOM     28  C   UNL d   1      15.838   6.328 -18.039  0.00  0.00    -0.000 A 
ATOM     29  C   UNL d   1      14.786   6.463 -17.124  0.00  0.00    -0.000 A 
ATOM     30  C   UNL d   1      13.559   5.865 -17.376  0.00  0.00    -0.002 A 
ENDBRANCH  24  25
BRANCH  24  31
ATOM     31  C   UNL d   1      11.043   5.208 -19.626  0.00  0.00     0.013 A 
ATOM     32  C   UNL d   1      11.175   5.174 -21.047  0.00  0.00    -0.002 A 
ATOM     33  C   UNL d   1      10.373   6.027 -21.862  0.00  0.00    -0.000 A 
ATOM     34  C   UNL d   1       9.458   6.926 -21.258  0.00  0.00    -0.000 A 
ATOM     35  C   UNL d   1       9.332   6.942 -19.863  0.00  0.00    -0.000 A 
ATOM     36  C   UNL d   1      10.082   6.078 -19.073  0.00  0.00    -0.002 A 
ENDBRANCH  24  31
ENDBRANCH   5  24
TORSDOF 9
