REMARK  4 active torsions:
REMARK  status: ('A' for Active; 'I' for Inactive)
REMARK    1  A    between atoms: C_8  and  C_9 
REMARK    2  A    between atoms: C_9  and  C_10 
REMARK    3  A    between atoms: C_10  and  N_11 
REMARK    4  A    between atoms: N_14  and  C_15 
ROOT
ATOM      1  N   UNL d   1       9.856   6.030  -9.595  0.00  0.00     0.141 N 
ATOM      2  C   UNL d   1       9.445   5.795  -8.212  0.00  0.00     0.274 C 
ATOM      3  C   UNL d   1      10.601   6.125  -7.276  0.00  0.00     0.138 C 
ATOM      4  N   UNL d   1      11.067   7.480  -7.477  0.00  0.00    -0.329 N 
ATOM      5  C   UNL d   1      11.341   7.844  -8.864  0.00  0.00     0.138 C 
ATOM      6  C   UNL d   1      10.159   7.454  -9.768  0.00  0.00     0.274 C 
ENDROOT
BRANCH   1   7
ATOM      7  C   UNL d   1       8.762   5.610 -10.445  0.00  0.00     0.255 C 
BRANCH   7   8
ATOM      8  C   UNL d   1       9.196   5.615 -11.920  0.00  0.00     0.063 C 
BRANCH   8   9
ATOM      9  C   UNL d   1       8.428   4.602 -12.752  0.00  0.00    -0.002 A 
ATOM     10  C   UNL d   1       9.061   3.833 -13.766  0.00  0.00     0.076 A 
ATOM     11  N   UNL d   1      10.436   4.010 -14.041  0.00  0.00    -0.212 NA
ATOM     12  C   UNL d   1       8.335   2.855 -14.495  0.00  0.00    -0.004 A 
ATOM     13  C   UNL d   1      11.057   3.548 -15.132  0.00  0.00     0.256 C 
ATOM     14  C   UNL d   1      10.216   2.814 -16.178  0.00  0.00     0.094 C 
ATOM     15  O   UNL d   1      12.253   3.745 -15.319  0.00  0.00    -0.270 OA
ATOM     16  C   UNL d   1       9.044   2.021 -15.559  0.00  0.00     0.033 C 
ATOM     17  C   UNL d   1       8.093   1.529 -16.672  0.00  0.00     0.005 C 
ATOM     18  C   UNL d   1       6.976   2.649 -14.185  0.00  0.00     0.009 A 
ATOM     19  C   UNL d   1       6.356   3.432 -13.206  0.00  0.00     0.057 A 
ATOM     20  C   UNL d   1       7.060   4.403 -12.490  0.00  0.00     0.009 A 
ATOM     21 CL   UNL d   1       4.732   3.128 -12.821  0.00  0.00    -0.082 Cl
ENDBRANCH   8   9
ENDBRANCH   7   8
ENDBRANCH   1   7
BRANCH   4  22
ATOM     22  C   UNL d   1      11.140   8.401  -6.416  0.00  0.00     0.148 A 
ATOM     23  C   UNL d   1      11.495   8.036  -5.046  0.00  0.00     0.042 A 
ATOM     24  C   UNL d   1      11.521   9.207  -4.239  0.00  0.00     0.050 A 
ATOM     25  C   UNL d   1      11.859   6.826  -4.405  0.00  0.00     0.004 A 
ATOM     26  S   UNL d   1      11.059  10.539  -5.254  0.00  0.00     0.015 SA
ATOM     27  C   UNL d   1      11.860   9.186  -2.879  0.00  0.00     0.008 A 
ATOM     28  N   UNL d   1      10.938   9.669  -6.664  0.00  0.00    -0.192 NA
ATOM     29  C   UNL d   1      12.189   7.964  -2.266  0.00  0.00     0.001 A 
ATOM     30  C   UNL d   1      12.190   6.783  -3.036  0.00  0.00     0.000 A 
ENDBRANCH   4  22
TORSDOF 4
