REMARK  7 active torsions:
REMARK  status: ('A' for Active; 'I' for Inactive)
REMARK    1  A    between atoms: C_2  and  C_3 
REMARK    2  A    between atoms: C_3  and  C_4 
REMARK    3  A    between atoms: C_4  and  C_5 
REMARK    4  A    between atoms: C_5  and  O_6 
REMARK    5  A    between atoms: O_6  and  C_7 
REMARK    6  A    between atoms: C_12  and  O_13 
REMARK    7  A    between atoms: C_21  and  O_22 
ROOT
ATOM      1  C   UNL d   1      10.196   7.793  -7.783  0.00  0.00     0.116 A 
ATOM      2  C   UNL d   1      10.267   6.425  -7.421  0.00  0.00     0.026 A 
ATOM      3  C   UNL d   1       9.909   5.451  -8.367  0.00  0.00    -0.002 A 
ATOM      4  C   UNL d   1       9.530   5.780  -9.655  0.00  0.00    -0.020 A 
ATOM      5  C   UNL d   1       9.488   7.130 -10.036  0.00  0.00     0.031 A 
ATOM      6  C   UNL d   1       9.836   8.138  -9.102  0.00  0.00     0.114 A 
ATOM      7  C   UNL d   1       9.050   7.501 -11.439  0.00  0.00     0.279 C 
ATOM      8  N   UNL d   1       8.271   6.477 -12.159  0.00  0.00     0.144 N 
ATOM      9  C   UNL d   1       6.874   6.340 -11.710  0.00  0.00     0.256 C 
ATOM     10  C   UNL d   1       6.071   5.433 -12.660  0.00  0.00     0.061 C 
ATOM     11  C   UNL d   1       6.875   4.237 -13.166  0.00  0.00    -0.020 A 
ATOM     12  C   UNL d   1       6.221   3.229 -13.879  0.00  0.00     0.022 A 
ATOM     13  C   UNL d   1       6.931   2.116 -14.391  0.00  0.00     0.119 A 
ATOM     14  C   UNL d   1       8.321   2.024 -14.136  0.00  0.00     0.153 A 
ATOM     15  O   UNL d   1       8.990   0.872 -14.473  0.00  0.00    -0.188 OA
ATOM     16  C   UNL d   1       8.989   3.023 -13.422  0.00  0.00     0.027 A 
ATOM     17  C   UNL d   1       8.271   4.132 -12.929  0.00  0.00     0.007 A 
ATOM     18  C   UNL d   1       8.961   5.183 -12.083  0.00  0.00     0.246 C 
ATOM     19  C   UNL d   1       9.115   4.694 -10.620  0.00  0.00     0.064 C 
ENDROOT
BRANCH   1  20
ATOM     20  O   UNL d   1      10.454   8.818  -6.896  0.00  0.00    -0.329 OA
BRANCH  20  21
ATOM     21  C   UNL d   1      10.504   8.548  -5.510  0.00  0.00     0.149 C 
BRANCH  21  22
ATOM     22  C   UNL d   1      11.905   8.082  -5.091  0.00  0.00     0.033 C 
BRANCH  22  23
ATOM     23  C   UNL d   1      12.081   7.886  -3.584  0.00  0.00     0.003 C 
BRANCH  23  24
ATOM     24  C   UNL d   1      12.064   9.218  -2.825  0.00  0.00     0.000 C 
ATOM     25  C   UNL d   1      12.369   9.031  -1.344  0.00  0.00     0.000 C 
ENDBRANCH  23  24
ENDBRANCH  22  23
ENDBRANCH  21  22
ENDBRANCH  20  21
ENDBRANCH   1  20
BRANCH   6  26
ATOM     26  O   UNL d   1       9.827   9.441  -9.539  0.00  0.00    -0.326 OA
ATOM     27  C   UNL d   1      11.123   9.981  -9.578  0.00  0.00     0.181 C 
ENDBRANCH   6  26
BRANCH  13  28
ATOM     28  O   UNL d   1       6.239   1.114 -15.032  0.00  0.00    -0.326 OA
ATOM     29  C   UNL d   1       6.606   0.905 -16.392  0.00  0.00     0.181 C 
ENDBRANCH  13  28
TORSDOF 7
