REMARK  5 active torsions:
REMARK  status: ('A' for Active; 'I' for Inactive)
REMARK       I    between atoms: C_2  and  N_3 
REMARK    1  A    between atoms: C_2  and  C_23 
REMARK    2  A    between atoms: N_3  and  C_4 
REMARK    3  A    between atoms: C_4  and  C_5 
REMARK    4  A    between atoms: C_5  and  N_6 
REMARK    5  A    between atoms: C_9  and  N_10 
ROOT
ATOM      1  N   UNL d   1      10.446   7.717 -10.496  0.00  0.00     0.142 N 
ATOM      2  C   UNL d   1       9.503   8.311  -9.556  0.00  0.00     0.253 C 
ATOM      3  C   UNL d   1      10.185   9.413  -8.773  0.00  0.00     0.061 C 
ATOM      4  C   UNL d   1      11.443   8.944  -8.040  0.00  0.00     0.127 C 
ATOM      5  C   UNL d   1      12.373   8.342  -9.083  0.00  0.00     0.215 C 
ATOM      6  F   UNL d   1      13.451   7.888  -8.445  0.00  0.00    -0.233 F 
ATOM      7  C   UNL d   1      11.691   7.233  -9.868  0.00  0.00     0.287 C 
ENDROOT
BRANCH   1   8
ATOM      8  C   UNL d   1       9.844   6.564 -11.166  0.00  0.00     0.277 C 
BRANCH   8   9
ATOM      9  C   UNL d   1       8.853   7.030 -12.240  0.00  0.00     0.164 C 
BRANCH   9  10
ATOM     10  N   UNL d   1       8.176   5.891 -12.825  0.00  0.00    -0.232 NA
ATOM     11  C   UNL d   1       8.755   4.943 -13.582  0.00  0.00     0.275 C 
ATOM     12  O   UNL d   1       9.900   5.038 -14.020  0.00  0.00    -0.266 OA
BRANCH  11  13
ATOM     13  C   UNL d   1       7.933   3.704 -13.792  0.00  0.00     0.060 A 
ATOM     14  C   UNL d   1       8.535   2.523 -14.299  0.00  0.00     0.037 A 
ATOM     15  C   UNL d   1       7.779   1.343 -14.464  0.00  0.00     0.168 A 
ATOM     16  C   UNL d   1       6.415   1.329 -14.123  0.00  0.00     0.167 A 
ATOM     17  F   UNL d   1       8.371   0.217 -14.928  0.00  0.00    -0.202 F 
ATOM     18  C   UNL d   1       5.826   2.495 -13.605  0.00  0.00     0.032 A 
ATOM     19  F   UNL d   1       5.669   0.209 -14.283  0.00  0.00    -0.202 F 
ATOM     20  C   UNL d   1       6.560   3.678 -13.466  0.00  0.00     0.007 A 
ENDBRANCH  11  13
ENDBRANCH   9  10
ENDBRANCH   8   9
ENDBRANCH   1   8
BRANCH   4  21
ATOM     21  N   UNL d   1      11.167   8.072  -6.877  0.00  0.00    -0.278 N 
ATOM     22  C   UNL d   1      11.590   8.411  -5.583  0.00  0.00     0.082 A 
ATOM     23  C   UNL d   1      11.257   7.360  -4.761  0.00  0.00     0.102 A 
ATOM     24  C   UNL d   1      12.292   9.517  -5.075  0.00  0.00     0.019 A 
ATOM     25  N   UNL d   1      10.620   6.453  -5.524  0.00  0.00    -0.191 NA
ATOM     26  C   UNL d   1      11.530   7.293  -3.393  0.00  0.00     0.021 A 
ATOM     27  C   UNL d   1      10.563   6.827  -6.792  0.00  0.00     0.350 A 
ATOM     28  O   UNL d   1      10.052   6.089  -7.590  0.00  0.00    -0.244 OA
ATOM     29  C   UNL d   1      12.192   8.401  -2.851  0.00  0.00     0.002 A 
ATOM     30  C   UNL d   1      12.568   9.482  -3.689  0.00  0.00     0.002 A 
ENDBRANCH   4  21
TORSDOF 5
