REMARK  8 active torsions:
REMARK  status: ('A' for Active; 'I' for Inactive)
REMARK    1  A    between atoms: N_12  and  C_13 
REMARK    2  A    between atoms: C_13  and  C_14 
REMARK    3  A    between atoms: C_14  and  C_15 
REMARK    4  A    between atoms: C_15  and  C_16 
REMARK    5  A    between atoms: C_16  and  C_17 
REMARK    6  A    between atoms: C_17  and  C_18 
REMARK    7  A    between atoms: C_18  and  N_19 
REMARK    8  A    between atoms: N_22  and  C_23 
ROOT
ATOM      1  C   UNL d   1       7.121   2.776 -14.472  0.00  0.00     0.002 C 
ENDROOT
BRANCH   1   2
ATOM      2  C   UNL d   1       7.499   1.327 -14.141  0.00  0.00     0.025 C 
BRANCH   2   3
ATOM      3  C   UNL d   1       7.521   0.379 -15.355  0.00  0.00     0.122 C 
BRANCH   3   4
ATOM      4  N   UNL d   1       8.553   0.710 -16.359  0.00  0.00    -0.221 N 
ATOM      5  C   UNL d   1       8.396   1.700 -17.341  0.00  0.00     0.271 A 
ATOM      6  O   UNL d   1       7.347   2.225 -17.681  0.00  0.00    -0.266 OA
ATOM      7  C   UNL d   1       9.730   2.051 -17.901  0.00  0.00     0.069 A 
ATOM      8  C   UNL d   1      10.776   1.294 -17.401  0.00  0.00     0.108 A 
ATOM      9  C   UNL d   1       9.951   3.038 -18.880  0.00  0.00     0.005 A 
ATOM     10  C   UNL d   1      12.094   1.426 -17.876  0.00  0.00     0.013 A 
ATOM     11  S   UNL d   1      10.169   0.157 -16.186  0.00  0.00     0.270 S 
ATOM     12  C   UNL d   1      12.322   2.398 -18.878  0.00  0.00     0.001 A 
ATOM     13  C   UNL d   1      11.268   3.204 -19.369  0.00  0.00     0.000 A 
ATOM     14  O   UNL d   1      10.233  -1.211 -16.702  0.00  0.00    -0.200 OA
ATOM     15  O   UNL d   1      10.647   0.538 -14.848  0.00  0.00    -0.200 OA
ENDBRANCH   3   4
ENDBRANCH   2   3
ENDBRANCH   1   2
BRANCH   1  16
ATOM     16  C   UNL d   1       6.803   3.701 -13.302  0.00  0.00     0.002 C 
BRANCH  16  17
ATOM     17  C   UNL d   1       8.085   4.364 -12.788  0.00  0.00     0.035 C 
BRANCH  17  18
ATOM     18  C   UNL d   1       7.788   5.363 -11.671  0.00  0.00     0.250 C 
BRANCH  18  19
ATOM     19  N   UNL d   1       8.980   5.508 -10.842  0.00  0.00     0.141 N 
ATOM     20  C   UNL d   1       8.639   5.239  -9.435  0.00  0.00     0.274 C 
ATOM     21  C   UNL d   1       9.869   5.398  -8.531  0.00  0.00     0.138 C 
ATOM     22  N   UNL d   1      10.419   6.738  -8.688  0.00  0.00    -0.330 N 
ATOM     23  C   UNL d   1      10.711   7.106 -10.066  0.00  0.00     0.138 C 
ATOM     24  C   UNL d   1       9.464   6.890 -10.941  0.00  0.00     0.274 C 
BRANCH  22  25
ATOM     25  C   UNL d   1      10.693   7.580  -7.579  0.00  0.00     0.140 A 
ATOM     26  N   UNL d   1      10.832   6.990  -6.362  0.00  0.00    -0.227 NA
ATOM     27  C   UNL d   1      11.060   7.758  -5.287  0.00  0.00     0.101 A 
ATOM     28  C   UNL d   1      11.202   9.165  -5.340  0.00  0.00     0.021 A 
ATOM     29  C   UNL d   1      11.075   9.770  -6.601  0.00  0.00     0.005 A 
ATOM     30  C   UNL d   1      10.808   8.984  -7.724  0.00  0.00     0.037 A 
ENDBRANCH  22  25
ENDBRANCH  18  19
ENDBRANCH  17  18
ENDBRANCH  16  17
ENDBRANCH   1  16
TORSDOF 8
