REMARK  6 active torsions:
REMARK  status: ('A' for Active; 'I' for Inactive)
REMARK    1  A    between atoms: C_6  and  C_7 
REMARK    2  A    between atoms: C_10  and  S_11 
REMARK    3  A    between atoms: S_11  and  C_12 
REMARK    4  A    between atoms: C_12  and  C_13 
REMARK    5  A    between atoms: C_13  and  C_14 
REMARK    6  A    between atoms: C_14  and  N_15 
ROOT
ATOM      1  C   UNL d   1      10.473   4.392 -15.244  0.00  0.00     0.047 C 
ENDROOT
BRANCH   1   2
ATOM      2  C   UNL d   1      11.463   3.474 -15.971  0.00  0.00     0.067 C 
BRANCH   2   3
ATOM      3  S   UNL d   1      12.336   4.331 -17.297  0.00  0.00    -0.075 SA
BRANCH   3   4
ATOM      4  C   UNL d   1      10.949   4.860 -18.261  0.00  0.00     0.193 A 
ATOM      5  N   UNL d   1       9.873   4.112 -18.519  0.00  0.00    -0.122 NA
ATOM      6  N   UNL d   1       9.063   4.911 -19.299  0.00  0.00    -0.126 NA
ATOM      7  C   UNL d   1       9.728   6.062 -19.488  0.00  0.00     0.191 A 
ATOM      8  N   UNL d   1      10.921   6.075 -18.834  0.00  0.00    -0.287 N 
ATOM      9  C   UNL d   1      11.955   7.087 -18.772  0.00  0.00     0.134 C 
BRANCH   7  10
ATOM     10  C   UNL d   1       9.162   7.137 -20.328  0.00  0.00     0.151 A 
ATOM     11  C   UNL d   1       9.670   8.077 -21.208  0.00  0.00     0.087 A 
ATOM     12  C   UNL d   1      11.060   8.362 -21.686  0.00  0.00     0.054 C 
ATOM     13  N   UNL d   1       8.622   8.842 -21.688  0.00  0.00    -0.221 NA
ATOM     14  C   UNL d   1       7.535   8.346 -21.113  0.00  0.00     0.225 A 
ATOM     15  O   UNL d   1       7.794   7.319 -20.258  0.00  0.00    -0.282 OA
ENDBRANCH   7  10
ENDBRANCH   3   4
ENDBRANCH   2   3
ENDBRANCH   1   2
BRANCH   1  16
ATOM     16  C   UNL d   1       9.830   3.721 -14.021  0.00  0.00     0.251 C 
BRANCH  16  17
ATOM     17  N   UNL d   1       8.979   4.688 -13.321  0.00  0.00     0.137 N 
ATOM     18  C   UNL d   1       9.769   5.702 -12.617  0.00  0.00     0.254 C 
ATOM     19  C   UNL d   1       8.799   6.331 -11.615  0.00  0.00     0.052 C 
ATOM     20  C   UNL d   1       7.863   5.186 -11.274  0.00  0.00     0.041 C 
ATOM     21  C   UNL d   1       9.556   6.972 -10.467  0.00  0.00    -0.024 A 
ATOM     22  C   UNL d   1       8.105   7.512 -12.294  0.00  0.00     0.011 C 
ATOM     23  C   UNL d   1       8.335   4.049 -12.188  0.00  0.00     0.251 C 
ATOM     24  C   UNL d   1       9.532   8.350 -10.576  0.00  0.00    -0.026 A 
ATOM     25  C   UNL d   1      10.130   6.359  -9.352  0.00  0.00     0.002 A 
ATOM     26  C   UNL d   1       8.757   8.813 -11.774  0.00  0.00     0.026 C 
ATOM     27  C   UNL d   1      10.073   9.169  -9.582  0.00  0.00    -0.004 A 
ATOM     28  C   UNL d   1      10.668   8.564  -8.452  0.00  0.00     0.006 A 
ATOM     29  C   UNL d   1      10.681   7.180  -8.325  0.00  0.00     0.034 A 
ATOM     30 BR   UNL d   1      11.398   6.384  -6.781  0.00  0.00    -0.049 Br
ENDBRANCH  16  17
ENDBRANCH   1  16
TORSDOF 6
