REMARK  6 active torsions:
REMARK  status: ('A' for Active; 'I' for Inactive)
REMARK       I    between atoms: C_2  and  N_3 
REMARK    1  A    between atoms: C_2  and  C_27 
REMARK    2  A    between atoms: N_3  and  C_4 
REMARK    3  A    between atoms: C_7  and  C_8 
REMARK    4  A    between atoms: C_8  and  C_9 
REMARK    5  A    between atoms: C_9  and  N_10 
REMARK    6  A    between atoms: C_13  and  C_14 
ROOT
ATOM      1  C   UNL d   1       8.578   5.026 -10.716  0.00  0.00     0.250 C 
ENDROOT
BRANCH   1   2
ATOM      2  C   UNL d   1       8.294   5.689 -12.072  0.00  0.00     0.035 C 
BRANCH   2   3
ATOM      3  C   UNL d   1       7.791   4.690 -13.130  0.00  0.00     0.002 C 
ATOM      4  C   UNL d   1       8.826   3.587 -13.451  0.00  0.00     0.002 C 
ATOM      5  C   UNL d   1       8.314   2.614 -14.523  0.00  0.00     0.024 C 
ATOM      6  C   UNL d   1       6.931   2.016 -14.163  0.00  0.00     0.106 C 
ATOM      7  C   UNL d   1       5.918   3.132 -13.849  0.00  0.00     0.024 C 
ATOM      8  C   UNL d   1       6.414   4.092 -12.771  0.00  0.00     0.002 C 
BRANCH   6   9
ATOM      9  N   UNL d   1       6.454   1.141 -15.234  0.00  0.00    -0.238 NA
ATOM     10  C   UNL d   1       5.604   0.129 -15.050  0.00  0.00     0.279 C 
ATOM     11  O   UNL d   1       5.022  -0.093 -13.986  0.00  0.00    -0.268 OA
BRANCH  10  12
ATOM     12  C   UNL d   1       5.424  -0.806 -16.239  0.00  0.00     0.195 C 
ATOM     13  O   UNL d   1       5.614  -0.098 -17.457  0.00  0.00    -0.347 OA
ATOM     14  C   UNL d   1       5.108  -0.928 -18.484  0.00  0.00     0.143 C 
ATOM     15  C   UNL d   1       3.828  -1.494 -17.873  0.00  0.00     0.035 C 
ATOM     16  C   UNL d   1       4.026  -1.417 -16.372  0.00  0.00     0.042 C 
ENDBRANCH  10  12
ENDBRANCH   6   9
ENDBRANCH   2   3
ENDBRANCH   1   2
BRANCH   1  17
ATOM     17  N   UNL d   1       8.939   6.004  -9.695  0.00  0.00     0.137 N 
ATOM     18  C   UNL d   1       8.680   5.447  -8.370  0.00  0.00     0.251 C 
ATOM     19  C   UNL d   1       8.977   6.493  -7.285  0.00  0.00     0.040 C 
ATOM     20  C   UNL d   1      10.435   6.961  -7.364  0.00  0.00     0.028 C 
ATOM     21  C   UNL d   1      10.728   7.454  -8.788  0.00  0.00     0.040 C 
ATOM     22  C   UNL d   1      10.340   6.390  -9.806  0.00  0.00     0.251 C 
BRANCH  20  23
ATOM     23  C   UNL d   1      10.733   8.029  -6.346  0.00  0.00     0.004 A 
ATOM     24  C   UNL d   1      11.322   7.887  -5.051  0.00  0.00     0.021 A 
ATOM     25  C   UNL d   1      11.370   9.187  -4.490  0.00  0.00     0.100 A 
ATOM     26  C   UNL d   1      11.810   6.828  -4.255  0.00  0.00     0.002 A 
ATOM     27  O   UNL d   1      10.836  10.088  -5.382  0.00  0.00    -0.305 OA
ATOM     28  C   UNL d   1      11.861   9.458  -3.210  0.00  0.00     0.025 A 
ATOM     29  C   UNL d   1      10.466   9.369  -6.478  0.00  0.00     0.118 A 
ATOM     30  C   UNL d   1      12.343   8.384  -2.436  0.00  0.00     0.002 A 
ATOM     31  C   UNL d   1      12.312   7.071  -2.960  0.00  0.00     0.000 A 
ENDBRANCH  20  23
ENDBRANCH   1  17
TORSDOF 6
