REMARK  5 active torsions:
REMARK  status: ('A' for Active; 'I' for Inactive)
REMARK    1  A    between atoms: C_6  and  C_7 
REMARK    2  A    between atoms: C_7  and  S_8 
REMARK    3  A    between atoms: S_8  and  C_9 
REMARK    4  A    between atoms: N_17  and  C_18 
REMARK    5  A    between atoms: C_18  and  C_19 
ROOT
ATOM      1  N   UNL d   1      17.507   6.485 -18.249  0.00  0.00    -0.191 NA
ATOM      2  C   UNL d   1      16.420   6.267 -17.920  0.00  0.00     0.101 C 
ATOM      3  C   UNL d   1      15.056   5.984 -17.507  0.00  0.00     0.068 A 
ATOM      4  C   UNL d   1      14.542   4.680 -17.639  0.00  0.00     0.010 A 
ATOM      5  C   UNL d   1      13.227   4.392 -17.224  0.00  0.00    -0.003 A 
ATOM      6  C   UNL d   1      12.415   5.410 -16.682  0.00  0.00    -0.011 A 
ATOM      7  C   UNL d   1      12.930   6.718 -16.551  0.00  0.00    -0.003 A 
ATOM      8  C   UNL d   1      14.246   7.002 -16.966  0.00  0.00     0.010 A 
ENDROOT
BRANCH   6   9
ATOM      9  C   UNL d   1      11.004   5.084 -16.227  0.00  0.00     0.091 C 
BRANCH   9  10
ATOM     10  S   UNL d   1      11.019   4.714 -14.448  0.00  0.00    -0.072 SA
BRANCH  10  11
ATOM     11  C   UNL d   1       9.670   3.580 -14.402  0.00  0.00     0.172 A 
ATOM     12  N   UNL d   1       8.432   3.928 -13.972  0.00  0.00    -0.303 N 
ATOM     13  C   UNL d   1       7.662   2.773 -14.058  0.00  0.00     0.080 A 
ATOM     14  C   UNL d   1       8.567   1.778 -14.535  0.00  0.00     0.099 A 
ATOM     15  C   UNL d   1       6.315   2.467 -13.768  0.00  0.00     0.019 A 
ATOM     16  N   UNL d   1       9.819   2.310 -14.775  0.00  0.00    -0.221 NA
ATOM     17  C   UNL d   1       8.086   0.460 -14.693  0.00  0.00     0.021 A 
ATOM     18  C   UNL d   1       6.744   0.146 -14.396  0.00  0.00     0.002 A 
ATOM     19  C   UNL d   1       5.862   1.143 -13.935  0.00  0.00     0.002 A 
BRANCH  12  20
ATOM     20  C   UNL d   1       7.972   5.226 -13.516  0.00  0.00     0.135 C 
BRANCH  20  21
ATOM     21  C   UNL d   1       8.508   5.575 -12.139  0.00  0.00     0.001 A 
ATOM     22  C   UNL d   1       9.349   6.690 -11.961  0.00  0.00    -0.002 A 
ATOM     23  C   UNL d   1       9.859   7.003 -10.684  0.00  0.00     0.011 A 
ATOM     24  C   UNL d   1       9.511   6.211  -9.575  0.00  0.00     0.058 A 
ATOM     25  C   UNL d   1       8.661   5.104  -9.747  0.00  0.00     0.011 A 
ATOM     26 CL   UNL d   1      10.119   6.599  -8.007  0.00  0.00    -0.082 Cl
ATOM     27  C   UNL d   1       8.151   4.796 -11.024  0.00  0.00    -0.002 A 
ENDBRANCH  20  21
ENDBRANCH  12  20
ENDBRANCH  10  11
ENDBRANCH   9  10
ENDBRANCH   6   9
TORSDOF 5
