REMARK  7 active torsions:
REMARK  status: ('A' for Active; 'I' for Inactive)
REMARK    1  A    between atoms: O_2  and  C_3 
REMARK    2  A    between atoms: C_6  and  C_7 
REMARK    3  A    between atoms: N_12  and  C_13 
REMARK    4  A    between atoms: C_13  and  C_14 
REMARK    5  A    between atoms: C_14  and  C_16 
REMARK    6  A    between atoms: C_16  and  N_17 
REMARK    7  A    between atoms: N_20  and  C_21 
ROOT
ATOM      1  C   UNL d   1       7.757   4.194 -12.685  0.00  0.00     0.066 A 
ATOM      2  C   UNL d   1       7.434   4.378 -11.300  0.00  0.00     0.018 A 
ATOM      3  C   UNL d   1       8.252   5.075 -10.398  0.00  0.00     0.002 A 
ATOM      4  C   UNL d   1       9.424   5.669 -10.858  0.00  0.00     0.001 A 
ATOM      5  C   UNL d   1       9.754   5.533 -12.207  0.00  0.00     0.012 A 
ATOM      6  C   UNL d   1       8.961   4.831 -13.129  0.00  0.00     0.084 A 
ATOM      7  C   UNL d   1       9.461   4.811 -14.491  0.00  0.00     0.102 C 
ATOM      8  N   UNL d   1       9.894   4.840 -15.575  0.00  0.00    -0.191 NA
ENDROOT
BRANCH   1   9
ATOM      9  N   UNL d   1       6.969   3.362 -13.489  0.00  0.00    -0.344 N 
ATOM     10  C   UNL d   1       5.519   3.233 -13.280  0.00  0.00     0.137 C 
ATOM     11  C   UNL d   1       5.113   1.745 -13.207  0.00  0.00     0.274 C 
ATOM     12  N   UNL d   1       5.602   0.984 -14.354  0.00  0.00     0.144 N 
ATOM     13  C   UNL d   1       7.052   1.052 -14.416  0.00  0.00     0.274 C 
ATOM     14  C   UNL d   1       7.538   2.478 -14.537  0.00  0.00     0.137 C 
BRANCH  12  15
ATOM     15  C   UNL d   1       5.109  -0.382 -14.382  0.00  0.00     0.285 C 
BRANCH  15  16
ATOM     16  C   UNL d   1       5.401  -1.104 -15.711  0.00  0.00     0.208 C 
ATOM     17  O   UNL d   1       4.683  -2.304 -15.636  0.00  0.00    -0.219 OA
BRANCH  16  18
ATOM     18  C   UNL d   1       4.965  -0.354 -17.002  0.00  0.00     0.148 C 
BRANCH  18  19
ATOM     19  N   UNL d   1       5.834  -0.678 -18.148  0.00  0.00    -0.247 N 
ATOM     20  C   UNL d   1       6.020  -1.918 -18.645  0.00  0.00     0.348 A 
ATOM     21  N   UNL d   1       6.871  -1.847 -19.671  0.00  0.00    -0.209 NA
ATOM     22  O   UNL d   1       5.511  -2.963 -18.241  0.00  0.00    -0.245 OA
ATOM     23  C   UNL d   1       7.325  -0.497 -19.935  0.00  0.00     0.179 A 
ATOM     24  C   UNL d   1       6.554   0.225 -18.836  0.00  0.00     0.265 A 
ATOM     25  C   UNL d   1       6.837  -0.058 -21.331  0.00  0.00     0.039 C 
ATOM     26  O   UNL d   1       6.627   1.440 -18.641  0.00  0.00    -0.269 OA
BRANCH  23  27
ATOM     27  C   UNL d   1       8.835  -0.317 -19.700  0.00  0.00     0.006 A 
ATOM     28  C   UNL d   1       9.596   0.540 -20.514  0.00  0.00     0.000 A 
ATOM     29  C   UNL d   1      10.974   0.710 -20.321  0.00  0.00     0.024 A 
ATOM     30  C   UNL d   1      11.622   0.033 -19.244  0.00  0.00     0.094 A 
ATOM     31  C   UNL d   1      10.882  -0.843 -18.446  0.00  0.00     0.024 A 
ATOM     32  C   UNL d   1       9.498  -1.017 -18.647  0.00  0.00     0.000 A 
BRANCH  30  33
ATOM     33  O   UNL d   1      12.961   0.192 -18.977  0.00  0.00    -0.328 OA
ATOM     34  C   UNL d   1      13.524   1.484 -19.178  0.00  0.00     0.181 C 
ENDBRANCH  30  33
ENDBRANCH  23  27
ENDBRANCH  18  19
ENDBRANCH  16  18
ENDBRANCH  15  16
ENDBRANCH  12  15
ENDBRANCH   1   9
TORSDOF 7
