REMARK  7 active torsions:
REMARK  status: ('A' for Active; 'I' for Inactive)
REMARK    1  A    between atoms: C_6  and  N_7 
REMARK    2  A    between atoms: N_10  and  C_11 
REMARK    3  A    between atoms: C_11  and  C_12 
REMARK    4  A    between atoms: C_12  and  C_13 
REMARK    5  A    between atoms: C_13  and  C_14 
REMARK    6  A    between atoms: C_14  and  O_15 
REMARK    7  A    between atoms: O_15  and  C_16 
ROOT
ATOM      1  N   UNL d   1       7.247   2.829 -14.266  0.00  0.00    -0.344 N 
ATOM      2  C   UNL d   1       8.636   3.194 -14.494  0.00  0.00     0.137 C 
ATOM      3  C   UNL d   1       9.309   3.628 -13.179  0.00  0.00     0.274 C 
ATOM      4  N   UNL d   1       8.528   4.695 -12.549  0.00  0.00     0.141 N 
ATOM      5  C   UNL d   1       7.160   4.239 -12.248  0.00  0.00     0.274 C 
ATOM      6  C   UNL d   1       6.452   3.811 -13.538  0.00  0.00     0.137 C 
ENDROOT
BRANCH   4   7
ATOM      7  C   UNL d   1       9.222   5.085 -11.323  0.00  0.00     0.251 C 
BRANCH   7   8
ATOM      8  C   UNL d   1       8.550   6.278 -10.655  0.00  0.00     0.038 C 
BRANCH   8   9
ATOM      9  C   UNL d   1       9.307   6.740  -9.415  0.00  0.00     0.035 C 
BRANCH   9  10
ATOM     10  C   UNL d   1      10.482   7.702  -9.716  0.00  0.00     0.149 C 
BRANCH  10  11
ATOM     11  O   UNL d   1      10.585   8.753  -8.745  0.00  0.00    -0.331 OA
BRANCH  11  12
ATOM     12  C   UNL d   1      10.920   8.419  -7.448  0.00  0.00     0.096 A 
ATOM     13  C   UNL d   1      10.963   9.471  -6.482  0.00  0.00     0.045 A 
ATOM     14  C   UNL d   1      11.288   9.145  -5.148  0.00  0.00     0.106 A 
ATOM     15  C   UNL d   1      11.524   7.830  -4.796  0.00  0.00     0.041 A 
ATOM     16  N   UNL d   1      11.444   9.984  -4.105  0.00  0.00    -0.148 NA
ATOM     17  C   UNL d   1      11.467   6.779  -5.723  0.00  0.00     0.005 A 
ATOM     18  C   UNL d   1      11.863   7.803  -3.455  0.00  0.00     0.124 A 
ATOM     19  C   UNL d   1      11.199   7.080  -7.061  0.00  0.00     0.024 A 
ATOM     20  N   UNL d   1      11.831   9.135  -3.070  0.00  0.00    -0.146 NA
ENDBRANCH  11  12
ENDBRANCH  10  11
ENDBRANCH   9  10
ENDBRANCH   8   9
ENDBRANCH   7   8
ENDBRANCH   4   7
BRANCH   1  21
ATOM     21  C   UNL d   1       6.686   1.618 -14.736  0.00  0.00     0.068 A 
ATOM     22  C   UNL d   1       5.834   0.899 -13.861  0.00  0.00     0.018 A 
ATOM     23  C   UNL d   1       5.217  -0.286 -14.281  0.00  0.00     0.002 A 
ATOM     24  C   UNL d   1       5.458  -0.796 -15.568  0.00  0.00     0.012 A 
ATOM     25  C   UNL d   1       6.308  -0.093 -16.450  0.00  0.00     0.070 A 
ATOM     26 CL   UNL d   1       6.536  -0.715 -18.039  0.00  0.00    -0.081 Cl
ATOM     27  C   UNL d   1       6.911   1.120 -16.044  0.00  0.00     0.084 A 
ATOM     28 CL   UNL d   1       7.843   1.993 -17.225  0.00  0.00    -0.080 Cl
ENDBRANCH   1  21
TORSDOF 7
