REMARK  3 active torsions:
REMARK  status: ('A' for Active; 'I' for Inactive)
REMARK    1  A    between atoms: N_5  and  C_6 
REMARK    2  A    between atoms: N_15  and  N_16 
REMARK       I    between atoms: N_16  and  C_17 
REMARK    3  A    between atoms: C_17  and  C_19 
ROOT
ATOM      1  C   UNL d   1       7.848   2.133 -14.382  0.00  0.00     0.142 C 
ATOM      2  N   UNL d   1       9.007   2.048 -14.960  0.00  0.00    -0.227 NA
ATOM      3  C   UNL d   1       9.861   3.139 -15.146  0.00  0.00     0.101 A 
ATOM      4  C   UNL d   1      10.647   3.107 -16.329  0.00  0.00     0.032 A 
ATOM      5  C   UNL d   1      11.596   4.111 -16.618  0.00  0.00     0.059 A 
ATOM      6 CL   UNL d   1      12.548   4.053 -18.048  0.00  0.00    -0.082 Cl
ATOM      7  C   UNL d   1      11.733   5.188 -15.735  0.00  0.00     0.013 A 
ATOM      8  C   UNL d   1      10.911   5.257 -14.606  0.00  0.00     0.022 A 
ATOM      9  C   UNL d   1      10.033   4.230 -14.238  0.00  0.00     0.101 A 
ATOM     10  N   UNL d   1       9.201   4.451 -13.113  0.00  0.00    -0.225 N 
ATOM     11  C   UNL d   1       7.850   4.557 -13.327  0.00  0.00     0.086 C 
ATOM     12  C   UNL d   1       7.098   5.668 -12.836  0.00  0.00     0.019 C 
ATOM     13  C   UNL d   1       5.702   5.610 -12.818  0.00  0.00     0.002 C 
ATOM     14  C   UNL d   1       5.087   4.552 -13.502  0.00  0.00     0.000 C 
ATOM     15  C   UNL d   1       5.858   3.522 -14.040  0.00  0.00     0.004 C 
ATOM     16  C   UNL d   1       7.235   3.450 -13.937  0.00  0.00     0.051 C 
ENDROOT
BRANCH  10  17
ATOM     17  N   UNL d   1       9.722   4.848 -11.857  0.00  0.00    -0.123 NA
ATOM     18  C   UNL d   1       9.071   4.961 -10.661  0.00  0.00     0.297 C 
ATOM     19  O   UNL d   1       7.990   4.453 -10.376  0.00  0.00    -0.264 OA
BRANCH  18  20
ATOM     20  C   UNL d   1       9.742   5.801  -9.625  0.00  0.00     0.079 A 
ATOM     21  C   UNL d   1       9.408   5.631  -8.267  0.00  0.00     0.104 A 
ATOM     22  N   UNL d   1       9.862   6.420  -7.281  0.00  0.00    -0.242 NA
ATOM     23  C   UNL d   1      10.724   7.406  -7.619  0.00  0.00     0.099 A 
ATOM     24  C   UNL d   1      11.110   7.684  -8.952  0.00  0.00     0.021 A 
ATOM     25  C   UNL d   1      10.566   6.883  -9.969  0.00  0.00     0.008 A 
ENDBRANCH  18  20
ENDBRANCH  10  17
BRANCH   1  26
ATOM     26  N   UNL d   1       7.087   0.985 -14.098  0.00  0.00    -0.330 N 
ATOM     27  C   UNL d   1       6.233   0.716 -12.929  0.00  0.00     0.138 C 
ATOM     28  C   UNL d   1       4.850   0.225 -13.344  0.00  0.00     0.274 C 
ATOM     29  N   UNL d   1       4.978  -0.975 -14.151  0.00  0.00     0.143 N 
ATOM     30  C   UNL d   1       3.632  -1.358 -14.524  0.00  0.00     0.286 C 
ATOM     31  C   UNL d   1       5.781  -0.698 -15.329  0.00  0.00     0.274 C 
ATOM     32  C   UNL d   1       7.183  -0.209 -14.916  0.00  0.00     0.138 C 
ENDBRANCH   1  26
TORSDOF 3
