REMARK  7 active torsions:
REMARK  status: ('A' for Active; 'I' for Inactive)
REMARK    1  A    between atoms: C_8  and  C_9 
REMARK    2  A    between atoms: C_9  and  C_10 
REMARK    3  A    between atoms: C_10  and  C_11 
REMARK    4  A    between atoms: C_11  and  C_12 
REMARK    5  A    between atoms: C_12  and  C_13 
REMARK    6  A    between atoms: C_13  and  N_14 
REMARK    7  A    between atoms: N_17  and  C_18 
ROOT
ATOM      1  C   UNL d   1       9.215   6.475 -11.598  0.00  0.00     0.035 C 
ENDROOT
BRANCH   1   2
ATOM      2  C   UNL d   1       9.565   7.144 -10.273  0.00  0.00     0.003 C 
BRANCH   2   3
ATOM      3  C   UNL d   1      10.813   8.034 -10.359  0.00  0.00     0.006 C 
BRANCH   3   4
ATOM      4  C   UNL d   1      10.947   9.020  -9.209  0.00  0.00     0.046 C 
BRANCH   4   5
ATOM      5  C   UNL d   1      11.166   8.409  -7.848  0.00  0.00     0.061 A 
ATOM      6  C   UNL d   1      11.281   7.022  -7.714  0.00  0.00     0.015 A 
ATOM      7  C   UNL d   1      11.469   6.476  -6.454  0.00  0.00    -0.000 A 
ATOM      8  C   UNL d   1      11.469   7.311  -5.343  0.00  0.00     0.014 A 
ATOM      9  C   UNL d   1      11.621   6.723  -3.958  0.00  0.00     0.039 C 
ATOM     10  C   UNL d   1      11.351   8.700  -5.557  0.00  0.00     0.161 A 
ATOM     11  C   UNL d   1      12.283   7.699  -2.972  0.00  0.00     0.095 C 
ATOM     12  C   UNL d   1      11.912   9.173  -3.259  0.00  0.00     0.257 C 
ATOM     13  O   UNL d   1      11.936   9.991  -2.368  0.00  0.00    -0.270 OA
ATOM     14  N   UNL d   1      11.498   9.547  -4.471  0.00  0.00    -0.193 NA
ATOM     15  N   UNL d   1      11.210   9.242  -6.786  0.00  0.00    -0.231 NA
ENDBRANCH   4   5
ENDBRANCH   3   4
ENDBRANCH   2   3
ENDBRANCH   1   2
BRANCH   1  16
ATOM     16  C   UNL d   1       7.932   5.647 -11.457  0.00  0.00     0.250 C 
BRANCH  16  17
ATOM     17  N   UNL d   1       7.567   5.021 -12.720  0.00  0.00     0.141 N 
ATOM     18  C   UNL d   1       8.527   3.954 -13.057  0.00  0.00     0.274 C 
ATOM     19  C   UNL d   1       8.147   3.297 -14.386  0.00  0.00     0.137 C 
ATOM     20  N   UNL d   1       6.772   2.832 -14.337  0.00  0.00    -0.344 N 
ATOM     21  C   UNL d   1       5.773   3.787 -13.850  0.00  0.00     0.137 C 
ATOM     22  C   UNL d   1       6.224   4.454 -12.552  0.00  0.00     0.274 C 
BRANCH  20  23
ATOM     23  C   UNL d   1       6.422   1.536 -14.735  0.00  0.00     0.068 A 
ATOM     24  C   UNL d   1       6.817   0.984 -15.985  0.00  0.00     0.084 A 
ATOM     25  C   UNL d   1       6.386  -0.312 -16.352  0.00  0.00     0.070 A 
ATOM     26 CL   UNL d   1       7.752   1.875 -17.146  0.00  0.00    -0.080 Cl
ATOM     27  C   UNL d   1       5.572  -1.054 -15.489  0.00  0.00     0.012 A 
ATOM     28 CL   UNL d   1       6.812  -0.978 -17.893  0.00  0.00    -0.081 Cl
ATOM     29  C   UNL d   1       5.153  -0.498 -14.278  0.00  0.00     0.002 A 
ATOM     30  C   UNL d   1       5.585   0.787 -13.887  0.00  0.00     0.018 A 
ENDBRANCH  20  23
ENDBRANCH  16  17
ENDBRANCH   1  16
TORSDOF 7
