REMARK  7 active torsions:
REMARK  status: ('A' for Active; 'I' for Inactive)
REMARK    1  A    between atoms: C_2  and  C_3 
REMARK       I    between atoms: C_2  and  N_10 
REMARK    2  A    between atoms: C_3  and  C_4 
REMARK    3  A    between atoms: N_10  and  C_11 
REMARK    4  A    between atoms: C_14  and  C_15 
REMARK    5  A    between atoms: C_15  and  C_16 
REMARK    6  A    between atoms: C_16  and  N_17 
REMARK    7  A    between atoms: C_20  and  C_21 
ROOT
ATOM      1  C   UNL d   1      12.075   3.476 -16.657  0.00  0.00     0.035 C 
ENDROOT
BRANCH   1   2
ATOM      2  C   UNL d   1      12.318   4.973 -16.954  0.00  0.00     0.002 C 
ATOM      3  C   UNL d   1      13.781   5.371 -16.679  0.00  0.00     0.002 C 
ATOM      4  C   UNL d   1      14.041   6.844 -17.022  0.00  0.00     0.024 C 
ATOM      5  C   UNL d   1      13.636   7.167 -18.470  0.00  0.00     0.106 C 
ATOM      6  C   UNL d   1      12.180   6.783 -18.741  0.00  0.00     0.024 C 
ATOM      7  C   UNL d   1      11.921   5.309 -18.400  0.00  0.00     0.002 C 
BRANCH   5   8
ATOM      8  N   UNL d   1      13.837   8.577 -18.744  0.00  0.00    -0.240 NA
ATOM      9  C   UNL d   1      15.017   9.113 -19.109  0.00  0.00     0.254 C 
ATOM     10  O   UNL d   1      16.064   8.485 -19.104  0.00  0.00    -0.271 OA
BRANCH   9  11
ATOM     11  C   UNL d   1      15.006  10.582 -19.497  0.00  0.00     0.122 C 
BRANCH  11  12
ATOM     12  C   UNL d   1      15.749  10.899 -20.807  0.00  0.00     0.154 C 
ATOM     13  O   UNL d   1      15.004  10.376 -21.894  0.00  0.00    -0.351 OA
ATOM     14  C   UNL d   1      15.600  10.691 -23.149  0.00  0.00     0.174 C 
ATOM     15  C   UNL d   1      17.027  10.121 -23.185  0.00  0.00     0.174 C 
ATOM     16  O   UNL d   1      17.762  10.741 -22.136  0.00  0.00    -0.349 OA
ATOM     17  C   UNL d   1      17.199  10.370 -20.878  0.00  0.00     0.172 C 
ENDBRANCH  11  12
ENDBRANCH   9  11
ENDBRANCH   5   8
ENDBRANCH   1   2
BRANCH   1  18
ATOM     18  C   UNL d   1      11.508   3.202 -15.249  0.00  0.00     0.250 C 
BRANCH  18  19
ATOM     19  N   UNL d   1      10.270   2.432 -15.346  0.00  0.00     0.137 N 
ATOM     20  C   UNL d   1      10.544   1.000 -15.188  0.00  0.00     0.251 C 
ATOM     21  C   UNL d   1       9.259   0.196 -15.402  0.00  0.00     0.040 C 
ATOM     22  C   UNL d   1       8.122   0.654 -14.464  0.00  0.00     0.028 C 
ATOM     23  C   UNL d   1       7.970   2.176 -14.523  0.00  0.00     0.040 C 
ATOM     24  C   UNL d   1       9.318   2.871 -14.325  0.00  0.00     0.251 C 
BRANCH  22  25
ATOM     25  C   UNL d   1       6.808  -0.010 -14.801  0.00  0.00     0.004 A 
ATOM     26  C   UNL d   1       6.184  -0.150 -16.093  0.00  0.00     0.021 A 
ATOM     27  C   UNL d   1       4.984  -0.868 -15.884  0.00  0.00     0.100 A 
ATOM     28  C   UNL d   1       6.487   0.226 -17.428  0.00  0.00     0.002 A 
ATOM     29  O   UNL d   1       4.843  -1.139 -14.536  0.00  0.00    -0.305 OA
ATOM     30  C   UNL d   1       4.107  -1.216 -16.925  0.00  0.00     0.025 A 
ATOM     31  C   UNL d   1       5.943  -0.614 -13.918  0.00  0.00     0.118 A 
ATOM     32  C   UNL d   1       4.439  -0.841 -18.241  0.00  0.00     0.002 A 
ATOM     33  C   UNL d   1       5.628  -0.129 -18.490  0.00  0.00     0.000 A 
ENDBRANCH  22  25
ENDBRANCH  18  19
ENDBRANCH   1  18
TORSDOF 7
