REMARK  6 active torsions:
REMARK  status: ('A' for Active; 'I' for Inactive)
REMARK    1  A    between atoms: C_9  and  O_10 
REMARK    2  A    between atoms: O_10  and  C_11 
REMARK    3  A    between atoms: C_11  and  C_12 
REMARK    4  A    between atoms: C_12  and  N_13 
REMARK    5  A    between atoms: N_13  and  C_14 
REMARK    6  A    between atoms: C_14  and  C_15 
ROOT
ATOM      1  O   UNL d   1       7.962   5.259 -13.416  0.00  0.00    -0.329 OA
ENDROOT
BRANCH   1   2
ATOM      2  C   UNL d   1       8.495   4.102 -13.915  0.00  0.00     0.092 A 
ATOM      3  C   UNL d   1       7.755   2.887 -14.034  0.00  0.00     0.027 A 
ATOM      4  C   UNL d   1       6.314   2.606 -13.699  0.00  0.00     0.120 A 
ATOM      5  C   UNL d   1       8.358   1.739 -14.548  0.00  0.00     0.083 A 
ATOM      6  C   UNL d   1       6.253   1.120 -14.081  0.00  0.00     0.260 A 
ATOM      7  O   UNL d   1       5.258   0.416 -13.908  0.00  0.00    -0.270 OA
ATOM      8  N   UNL d   1       7.422   0.698 -14.568  0.00  0.00    -0.212 NA
ATOM      9  C   UNL d   1       9.704   1.712 -14.957  0.00  0.00     0.019 A 
ATOM     10  C   UNL d   1      10.443   2.919 -14.860  0.00  0.00     0.004 A 
ATOM     11  C   UNL d   1       9.832   4.093 -14.358  0.00  0.00     0.024 A 
ENDBRANCH   1   2
BRANCH   1  12
ATOM     12  C   UNL d   1       7.521   5.237 -12.070  0.00  0.00     0.187 C 
BRANCH  12  13
ATOM     13  C   UNL d   1       8.742   5.350 -11.159  0.00  0.00     0.323 C 
BRANCH  13  14
ATOM     14  N   UNL d   1       8.360   5.014  -9.799  0.00  0.00     0.347 N 
BRANCH  14  15
ATOM     15  C   UNL d   1       9.500   5.030  -8.906  0.00  0.00     0.317 C 
BRANCH  15  16
ATOM     16  C   UNL d   1       9.815   6.420  -8.402  0.00  0.00     0.014 A 
ATOM     17  C   UNL d   1       9.065   6.953  -7.337  0.00  0.00    -0.002 A 
ATOM     18  C   UNL d   1       9.347   8.242  -6.854  0.00  0.00    -0.000 A 
ATOM     19  C   UNL d   1      10.380   9.002  -7.437  0.00  0.00    -0.000 A 
ATOM     20  C   UNL d   1      11.119   8.482  -8.517  0.00  0.00    -0.000 A 
ATOM     21  C   UNL d   1      10.831   7.191  -9.005  0.00  0.00    -0.002 A 
ENDBRANCH  15  16
ENDBRANCH  14  15
ENDBRANCH  13  14
ENDBRANCH  12  13
ENDBRANCH   1  12
TORSDOF 6
