REMARK  8 active torsions:
REMARK  status: ('A' for Active; 'I' for Inactive)
REMARK    1  A    between atoms: C_3  and  S_4 
REMARK    2  A    between atoms: S_4  and  C_5 
REMARK    3  A    between atoms: C_5  and  C_6 
REMARK    4  A    between atoms: C_6  and  C_7 
REMARK    5  A    between atoms: C_7  and  N_8 
REMARK    6  A    between atoms: N_13  and  C_14 
REMARK    7  A    between atoms: C_17  and  C_18 
REMARK    8  A    between atoms: C_28  and  C_29 
ROOT
ATOM      1  N   UNL d   1      10.405   4.090 -14.558  0.00  0.00     0.138 N 
ATOM      2  C   UNL d   1       8.962   3.901 -14.738  0.00  0.00     0.252 C 
ATOM      3  C   UNL d   1       8.347   5.012 -13.891  0.00  0.00     0.052 C 
ATOM      4  C   UNL d   1       7.083   4.675 -13.080  0.00  0.00     0.021 C 
ATOM      5  C   UNL d   1       7.366   5.327 -11.723  0.00  0.00     0.077 C 
ATOM      6  N   UNL d   1       8.803   5.203 -11.549  0.00  0.00    -0.252 NA
ATOM      7  C   UNL d   1       9.414   5.327 -12.869  0.00  0.00     0.097 C 
ATOM      8  C   UNL d   1      10.516   4.316 -13.131  0.00  0.00     0.266 C 
ENDROOT
BRANCH   1   9
ATOM      9  C   UNL d   1      11.219   2.945 -14.951  0.00  0.00     0.251 C 
BRANCH   9  10
ATOM     10  C   UNL d   1      11.116   2.711 -16.459  0.00  0.00     0.047 C 
BRANCH  10  11
ATOM     11  C   UNL d   1      11.611   1.331 -16.913  0.00  0.00     0.067 C 
BRANCH  11  12
ATOM     12  S   UNL d   1      11.160   0.938 -18.635  0.00  0.00    -0.075 SA
BRANCH  12  13
ATOM     13  C   UNL d   1       9.394   0.809 -18.482  0.00  0.00     0.193 A 
ATOM     14  N   UNL d   1       8.734  -0.366 -18.509  0.00  0.00    -0.292 N 
ATOM     15  C   UNL d   1       9.243  -1.705 -18.773  0.00  0.00     0.134 C 
ATOM     16  C   UNL d   1       7.466   0.043 -18.297  0.00  0.00     0.143 A 
ATOM     17  N   UNL d   1       7.324   1.360 -18.203  0.00  0.00    -0.133 NA
ATOM     18  N   UNL d   1       8.591   1.866 -18.375  0.00  0.00    -0.122 NA
BRANCH  16  19
ATOM     19  C   UNL d   1       6.278  -0.888 -18.278  0.00  0.00     0.059 C 
ATOM     20  C   UNL d   1       5.442  -0.775 -17.002  0.00  0.00     0.007 C 
ATOM     21  C   UNL d   1       4.044  -1.202 -17.442  0.00  0.00     0.001 C 
ATOM     22  C   UNL d   1       3.904  -0.640 -18.864  0.00  0.00     0.001 C 
ATOM     23  C   UNL d   1       5.322  -0.631 -19.454  0.00  0.00     0.007 C 
ENDBRANCH  16  19
ENDBRANCH  12  13
ENDBRANCH  11  12
ENDBRANCH  10  11
ENDBRANCH   9  10
ENDBRANCH   1   9
BRANCH   6  24
ATOM     24  C   UNL d   1       9.344   5.970 -10.508  0.00  0.00     0.036 A 
ATOM     25  C   UNL d   1       9.453   5.389  -9.222  0.00  0.00     0.011 A 
ATOM     26  C   UNL d   1      10.023   6.112  -8.161  0.00  0.00     0.005 A 
ATOM     27  C   UNL d   1      10.495   7.431  -8.362  0.00  0.00     0.071 A 
ATOM     28  C   UNL d   1      10.374   8.016  -9.635  0.00  0.00     0.005 A 
ATOM     29  C   UNL d   1       9.792   7.298 -10.694  0.00  0.00     0.011 A 
BRANCH  27  30
ATOM     30  C   UNL d   1      11.120   8.226  -7.231  0.00  0.00     0.419 C 
ATOM     31  F   UNL d   1      12.253   8.785  -7.658  0.00  0.00    -0.166 F 
ATOM     32  F   UNL d   1      10.280   9.189  -6.853  0.00  0.00    -0.166 F 
ATOM     33  F   UNL d   1      11.399   7.461  -6.175  0.00  0.00    -0.166 F 
ENDBRANCH  27  30
ENDBRANCH   6  24
TORSDOF 8
