REMARK  5 active torsions:
REMARK  status: ('A' for Active; 'I' for Inactive)
REMARK    1  A    between atoms: C_2  and  C_3 
REMARK       I    between atoms: C_2  and  N_18 
REMARK    2  A    between atoms: C_3  and  N_4 
REMARK    3  A    between atoms: N_7  and  C_8 
REMARK    4  A    between atoms: C_8  and  C_9 
REMARK    5  A    between atoms: C_24  and  N_25 
ROOT
ATOM      1  C   UNL d   1       8.403   5.052 -13.139  0.00  0.00     0.337 C 
ENDROOT
BRANCH   1   2
ATOM      2  C   UNL d   1       9.175   3.925 -13.806  0.00  0.00     0.272 C 
ATOM      3  O   UNL d   1       9.214   2.835 -13.257  0.00  0.00    -0.270 OA
ATOM      4  N   UNL d   1       9.794   4.155 -14.978  0.00  0.00    -0.298 N 
ATOM      5  C   UNL d   1      10.203   3.180 -15.887  0.00  0.00     0.060 A 
ATOM      6  C   UNL d   1      10.093   5.448 -15.545  0.00  0.00     0.114 A 
ATOM      7  C   UNL d   1      10.827   3.754 -16.986  0.00  0.00    -0.004 A 
ATOM      8  C   UNL d   1       9.999   1.800 -15.829  0.00  0.00     0.041 A 
ATOM      9  C   UNL d   1      10.880   5.234 -16.845  0.00  0.00     0.052 A 
ATOM     10  C   UNL d   1      11.313   2.989 -18.059  0.00  0.00    -0.001 A 
ATOM     11  C   UNL d   1      11.131   1.595 -17.995  0.00  0.00     0.023 A 
ATOM     12  C   UNL d   1      10.468   1.008 -16.896  0.00  0.00     0.128 A 
BRANCH  12  13
ATOM     13  N   UNL d   1      10.263  -0.432 -16.835  0.00  0.00    -0.114 N 
ATOM     14  O   UNL d   1       9.886  -0.841 -15.751  0.00  0.00    -0.532 OA
ATOM     15  O   UNL d   1      10.526  -1.131 -17.813  0.00  0.00    -0.532 OA
ENDBRANCH  12  13
ENDBRANCH   1   2
BRANCH   1  16
ATOM     16  N   UNL d   1       9.231   5.999 -12.424  0.00  0.00     0.151 N 
ATOM     17  C   UNL d   1       9.652   5.466 -11.143  0.00  0.00     0.286 C 
ATOM     18  C   UNL d   1      10.537   6.480 -10.415  0.00  0.00     0.286 C 
ATOM     19  N   UNL d   1       9.840   7.736 -10.123  0.00  0.00     0.146 N 
ATOM     20  C   UNL d   1       9.389   8.281 -11.404  0.00  0.00     0.286 C 
ATOM     21  C   UNL d   1       8.529   7.257 -12.176  0.00  0.00     0.286 C 
BRANCH  19  22
ATOM     22  C   UNL d   1      10.633   8.704  -9.359  0.00  0.00     0.277 C 
BRANCH  22  23
ATOM     23  C   UNL d   1      10.872   8.328  -7.889  0.00  0.00     0.011 A 
ATOM     24  C   UNL d   1      11.255   9.319  -6.957  0.00  0.00    -0.002 A 
ATOM     25  C   UNL d   1      11.465   8.970  -5.605  0.00  0.00     0.011 A 
ATOM     26  C   UNL d   1      11.356   7.638  -5.173  0.00  0.00     0.058 A 
ATOM     27  C   UNL d   1      10.983   6.664  -6.090  0.00  0.00     0.011 A 
ATOM     28 CL   UNL d   1      11.665   7.153  -3.555  0.00  0.00    -0.082 Cl
ATOM     29  C   UNL d   1      10.678   7.012  -7.397  0.00  0.00    -0.002 A 
ENDBRANCH  22  23
ENDBRANCH  19  22
ENDBRANCH   1  16
TORSDOF 5
