REMARK  7 active torsions:
REMARK  status: ('A' for Active; 'I' for Inactive)
REMARK    1  A    between atoms: O_2  and  C_3 
REMARK    2  A    between atoms: C_8  and  N_9 
REMARK    3  A    between atoms: N_12  and  C_13 
REMARK    4  A    between atoms: C_13  and  C_14 
REMARK    5  A    between atoms: C_14  and  C_15 
REMARK       I    between atoms: C_15  and  N_17 
REMARK    6  A    between atoms: N_17  and  C_18 
REMARK    7  A    between atoms: C_26  and  O_27 
ROOT
ATOM      1  C   UNL d   1       8.133   6.003 -13.140  0.00  0.00     0.125 C 
ENDROOT
BRANCH   1   2
ATOM      2  C   UNL d   1       8.350   4.914 -14.205  0.00  0.00     0.260 C 
BRANCH   2   3
ATOM      3  N   UNL d   1       7.813   3.613 -13.808  0.00  0.00     0.142 N 
ATOM      4  C   UNL d   1       8.249   2.576 -14.755  0.00  0.00     0.274 C 
ATOM      5  C   UNL d   1       7.783   1.187 -14.284  0.00  0.00     0.137 C 
ATOM      6  N   UNL d   1       6.333   1.192 -14.089  0.00  0.00    -0.343 N 
ATOM      7  C   UNL d   1       5.795   2.276 -13.260  0.00  0.00     0.137 C 
ATOM      8  C   UNL d   1       6.341   3.633 -13.754  0.00  0.00     0.274 C 
BRANCH   6   9
ATOM      9  C   UNL d   1       5.489   0.310 -14.769  0.00  0.00     0.079 A 
ATOM     10  C   UNL d   1       5.699  -0.062 -16.139  0.00  0.00     0.110 A 
ATOM     11  C   UNL d   1       4.858  -1.019 -16.735  0.00  0.00     0.026 A 
ATOM     12  C   UNL d   1       3.784  -1.572 -16.024  0.00  0.00     0.002 A 
ATOM     13  C   UNL d   1       3.531  -1.171 -14.698  0.00  0.00     0.002 A 
ATOM     14  C   UNL d   1       4.389  -0.254 -14.078  0.00  0.00     0.019 A 
BRANCH  10  15
ATOM     15  O   UNL d   1       6.693   0.586 -16.842  0.00  0.00    -0.327 OA
ATOM     16  C   UNL d   1       7.037   0.138 -18.129  0.00  0.00     0.181 C 
ENDBRANCH  10  15
ENDBRANCH   6   9
ENDBRANCH   2   3
ENDBRANCH   1   2
BRANCH   1  17
ATOM     17  C   UNL d   1       9.085   5.835 -11.986  0.00  0.00     0.253 C 
ATOM     18  O   UNL d   1      10.181   5.347 -12.219  0.00  0.00    -0.271 OA
ATOM     19  N   UNL d   1       8.703   6.311 -10.796  0.00  0.00    -0.240 NA
BRANCH  19  20
ATOM     20  C   UNL d   1       9.539   6.439  -9.611  0.00  0.00     0.111 C 
ATOM     21  C   UNL d   1       9.974   7.904  -9.419  0.00  0.00     0.051 C 
ATOM     22  C   UNL d   1      10.564   8.195  -8.043  0.00  0.00    -0.022 A 
ATOM     23  C   UNL d   1      10.394   7.340  -6.941  0.00  0.00    -0.004 A 
ATOM     24  C   UNL d   1      11.297   9.366  -7.870  0.00  0.00    -0.004 A 
ATOM     25  C   UNL d   1       9.603   6.066  -7.137  0.00  0.00     0.030 C 
ATOM     26  C   UNL d   1      10.978   7.635  -5.683  0.00  0.00     0.090 A 
ATOM     27  C   UNL d   1       8.756   5.984  -8.389  0.00  0.00     0.029 C 
ATOM     28  C   UNL d   1      11.693   8.858  -5.530  0.00  0.00     0.024 A 
ATOM     29  C   UNL d   1      11.848   9.713  -6.627  0.00  0.00     0.002 A 
BRANCH  26  30
ATOM     30  O   UNL d   1      10.825   6.722  -4.660  0.00  0.00    -0.328 OA
ATOM     31  C   UNL d   1      11.609   6.899  -3.485  0.00  0.00     0.181 C 
ENDBRANCH  26  30
ENDBRANCH  19  20
ENDBRANCH   1  17
TORSDOF 7
