REMARK  6 active torsions:
REMARK  status: ('A' for Active; 'I' for Inactive)
REMARK    1  A    between atoms: C_4  and  C_5 
REMARK    2  A    between atoms: C_5  and  C_6 
REMARK    3  A    between atoms: C_6  and  C_7 
REMARK    4  A    between atoms: C_12  and  O_13 
REMARK    5  A    between atoms: O_13  and  C_14 
REMARK    6  A    between atoms: C_14  and  C_15 
ROOT
ATOM      1  C   UNL d   1       8.299   4.000 -13.508  0.00  0.00     0.001 A 
ATOM      2  C   UNL d   1       8.724   5.212 -12.912  0.00  0.00    -0.002 A 
ATOM      3  C   UNL d   1       7.816   6.002 -12.180  0.00  0.00    -0.000 A 
ATOM      4  C   UNL d   1       6.481   5.588 -12.040  0.00  0.00     0.002 A 
ATOM      5  C   UNL d   1       6.053   4.379 -12.617  0.00  0.00     0.024 A 
ATOM      6  C   UNL d   1       6.952   3.569 -13.350  0.00  0.00     0.090 A 
ENDROOT
BRANCH   1   7
ATOM      7  C   UNL d   1       9.310   3.133 -14.258  0.00  0.00     0.033 C 
BRANCH   7   8
ATOM      8  C   UNL d   1       9.030   3.039 -15.768  0.00  0.00     0.031 C 
BRANCH   8   9
ATOM      9  C   UNL d   1       9.910   2.023 -16.481  0.00  0.00    -0.022 A 
ATOM     10  C   UNL d   1       9.532   0.661 -16.533  0.00  0.00    -0.004 A 
ATOM     11  C   UNL d   1      10.297  -0.273 -17.246  0.00  0.00    -0.000 A 
ATOM     12  C   UNL d   1      11.481   0.135 -17.886  0.00  0.00    -0.000 A 
ATOM     13  C   UNL d   1      11.892   1.485 -17.809  0.00  0.00    -0.000 A 
ATOM     14  C   UNL d   1      11.103   2.431 -17.116  0.00  0.00    -0.004 A 
ENDBRANCH   8   9
ENDBRANCH   7   8
ENDBRANCH   1   7
BRANCH   6  15
ATOM     15  O   UNL d   1       6.573   2.374 -13.937  0.00  0.00    -0.326 OA
BRANCH  15  16
ATOM     16  C   UNL d   1       5.523   1.597 -13.350  0.00  0.00     0.177 C 
BRANCH  16  17
ATOM     17  C   UNL d   1       5.113   0.423 -14.229  0.00  0.00     0.027 A 
ATOM     18  C   UNL d   1       3.884  -0.232 -14.034  0.00  0.00     0.097 A 
ATOM     19  N   UNL d   1       3.440  -1.212 -14.833  0.00  0.00    -0.243 NA
ATOM     20  C   UNL d   1       4.222  -1.609 -15.857  0.00  0.00     0.099 A 
ATOM     21  C   UNL d   1       5.452  -1.010 -16.151  0.00  0.00     0.021 A 
ATOM     22  C   UNL d   1       5.888   0.044 -15.330  0.00  0.00     0.001 A 
ENDBRANCH  16  17
ENDBRANCH  15  16
ENDBRANCH   6  15
TORSDOF 6
