REMARK  3 active torsions:
REMARK  status: ('A' for Active; 'I' for Inactive)
REMARK    1  A    between atoms: N_13  and  C_14 
REMARK    2  A    between atoms: N_17  and  C_18 
REMARK    3  A    between atoms: C_18  and  C_19 
ROOT
ATOM      1  C   UNL d   1       9.783   5.984 -10.409  0.00  0.00     0.094 C 
ATOM      2  C   UNL d   1       8.850   6.814 -11.265  0.00  0.00     0.058 C 
ATOM      3  C   UNL d   1       8.839   6.385 -12.734  0.00  0.00     0.253 C 
ATOM      4  N   UNL d   1       8.491   4.971 -12.836  0.00  0.00     0.141 N 
ATOM      5  C   UNL d   1       9.497   4.171 -12.170  0.00  0.00     0.253 C 
ATOM      6  C   UNL d   1       9.456   4.498 -10.680  0.00  0.00     0.058 C 
ENDROOT
BRANCH   1   7
ATOM      7  N   UNL d   1       9.762   6.356  -8.988  0.00  0.00    -0.284 N 
ATOM      8  C   UNL d   1      10.627   7.261  -8.358  0.00  0.00     0.059 A 
ATOM      9  C   UNL d   1      11.776   7.945  -9.082  0.00  0.00     0.052 C 
ATOM     10  C   UNL d   1      10.274   7.341  -7.080  0.00  0.00     0.098 A 
ATOM     11  C   UNL d   1      10.783   8.156  -6.014  0.00  0.00     0.019 A 
ATOM     12  N   UNL d   1       9.164   6.565  -6.907  0.00  0.00    -0.191 NA
ATOM     13  C   UNL d   1      10.681   9.547  -6.145  0.00  0.00     0.002 A 
ATOM     14  C   UNL d   1      11.289   7.551  -4.849  0.00  0.00     0.002 A 
ATOM     15  C   UNL d   1      11.078  10.356  -5.064  0.00  0.00     0.000 A 
ATOM     16  C   UNL d   1      11.610   9.763  -3.901  0.00  0.00     0.000 A 
ATOM     17  C   UNL d   1      11.736   8.364  -3.794  0.00  0.00     0.000 A 
ATOM     18  C   UNL d   1       8.912   5.931  -8.035  0.00  0.00     0.350 A 
ATOM     19  O   UNL d   1       8.063   5.050  -8.138  0.00  0.00    -0.244 OA
ENDBRANCH   1   7
BRANCH   4  20
ATOM     20  C   UNL d   1       8.439   4.590 -14.238  0.00  0.00     0.277 C 
BRANCH  20  21
ATOM     21  C   UNL d   1       8.118   3.137 -14.489  0.00  0.00     0.012 A 
ATOM     22  C   UNL d   1       6.903   2.567 -14.046  0.00  0.00     0.009 A 
ATOM     23  C   UNL d   1       6.655   1.195 -14.266  0.00  0.00     0.058 A 
ATOM     24  C   UNL d   1       7.605   0.411 -14.946  0.00  0.00     0.011 A 
ATOM     25 CL   UNL d   1       5.220   0.445 -13.659  0.00  0.00    -0.082 Cl
ATOM     26  C   UNL d   1       8.807   0.987 -15.403  0.00  0.00     0.001 A 
ATOM     27  C   UNL d   1       9.060   2.351 -15.175  0.00  0.00    -0.002 A 
ENDBRANCH  20  21
ENDBRANCH   4  20
TORSDOF 3
