REMARK  6 active torsions:
REMARK  status: ('A' for Active; 'I' for Inactive)
REMARK    1  A    between atoms: C_4  and  N_5 
REMARK    2  A    between atoms: N_8  and  C_9 
REMARK    3  A    between atoms: C_9  and  C_10 
REMARK    4  A    between atoms: C_10  and  C_11 
REMARK    5  A    between atoms: C_11  and  N_12 
REMARK    6  A    between atoms: N_12  and  C_13 
ROOT
ATOM      1  C   UNL d   1       8.919   7.299 -11.646  0.00  0.00     0.253 C 
ENDROOT
BRANCH   1   2
ATOM      2  N   UNL d   1       8.158   6.466 -12.572  0.00  0.00     0.141 N 
ATOM      3  C   UNL d   1       9.053   5.487 -13.168  0.00  0.00     0.274 C 
ATOM      4  C   UNL d   1       8.297   4.694 -14.229  0.00  0.00     0.138 C 
ATOM      5  N   UNL d   1       7.101   4.061 -13.660  0.00  0.00    -0.330 N 
ATOM      6  C   UNL d   1       6.192   4.968 -12.946  0.00  0.00     0.138 C 
ATOM      7  C   UNL d   1       7.010   5.797 -11.941  0.00  0.00     0.274 C 
BRANCH   5   8
ATOM      8  C   UNL d   1       6.831   2.671 -13.793  0.00  0.00     0.140 A 
ATOM      9  C   UNL d   1       7.701   1.791 -14.496  0.00  0.00     0.037 A 
ATOM     10  C   UNL d   1       7.430   0.407 -14.495  0.00  0.00     0.005 A 
ATOM     11  C   UNL d   1       6.316  -0.074 -13.791  0.00  0.00     0.021 A 
ATOM     12  C   UNL d   1       5.500   0.857 -13.124  0.00  0.00     0.101 A 
ATOM     13  N   UNL d   1       5.740   2.186 -13.147  0.00  0.00    -0.227 NA
ENDBRANCH   5   8
ENDBRANCH   1   2
BRANCH   1  14
ATOM     14  C   UNL d   1       9.309   6.549 -10.342  0.00  0.00     0.062 C 
BRANCH  14  15
ATOM     15  C   UNL d   1       9.972   7.464  -9.344  0.00  0.00     0.129 C 
BRANCH  15  16
ATOM     16  N   UNL d   1      10.176   6.790  -8.073  0.00  0.00    -0.255 NA
BRANCH  16  17
ATOM     17  C   UNL d   1      10.663   7.391  -6.927  0.00  0.00     0.165 C 
ATOM     18  C   UNL d   1      10.783   8.916  -6.992  0.00  0.00     0.214 C 
ATOM     19  O   UNL d   1      10.760   9.569  -5.736  0.00  0.00    -0.321 OA
ATOM     20  C   UNL d   1      11.321   8.879  -4.698  0.00  0.00     0.112 A 
ATOM     21  C   UNL d   1      11.461   7.470  -4.756  0.00  0.00     0.105 A 
ATOM     22  C   UNL d   1      11.672   9.590  -3.545  0.00  0.00     0.026 A 
ATOM     23  N   UNL d   1      11.035   6.740  -5.868  0.00  0.00    -0.227 NA
ATOM     24  C   UNL d   1      12.013   6.796  -3.645  0.00  0.00     0.021 A 
ATOM     25  C   UNL d   1      12.407   7.517  -2.501  0.00  0.00     0.002 A 
ATOM     26  C   UNL d   1      12.252   8.917  -2.454  0.00  0.00     0.002 A 
ENDBRANCH  16  17
ENDBRANCH  15  16
ENDBRANCH  14  15
ENDBRANCH   1  14
TORSDOF 6
