REMARK  7 active torsions:
REMARK  status: ('A' for Active; 'I' for Inactive)
REMARK       I    between atoms: C_2  and  N_3 
REMARK    1  A    between atoms: C_2  and  C_11 
REMARK    2  A    between atoms: N_3  and  C_4 
REMARK    3  A    between atoms: C_4  and  C_5 
REMARK       I    between atoms: N_19  and  C_20 
REMARK    4  A    between atoms: C_20  and  C_22 
REMARK    5  A    between atoms: C_22  and  N_23 
REMARK    6  A    between atoms: N_26  and  C_27 
REMARK    7  A    between atoms: C_27  and  C_28 
ROOT
ATOM      1  C   UNL d   1       9.087   1.939 -14.171  0.00  0.00     0.173 A 
ATOM      2  C   UNL d   1       8.874   0.393 -14.185  0.00  0.00     0.060 A 
ATOM      3  C   UNL d   1       7.375   0.195 -14.166  0.00  0.00    -0.004 A 
ATOM      4  C   UNL d   1       6.616  -0.953 -14.043  0.00  0.00    -0.003 C 
ATOM      5  C   UNL d   1       5.209  -0.868 -14.046  0.00  0.00    -0.000 C 
ATOM      6  C   UNL d   1       4.617   0.368 -13.872  0.00  0.00     0.002 C 
ATOM      7  C   UNL d   1       5.433   1.525 -13.765  0.00  0.00     0.017 C 
ATOM      8  C   UNL d   1       6.787   1.472 -14.064  0.00  0.00     0.059 A 
ATOM      9  N   UNL d   1       7.736   2.501 -14.049  0.00  0.00    -0.291 N 
ATOM     10  C   UNL d   1       7.482   3.805 -13.698  0.00  0.00     0.272 C 
ATOM     11  O   UNL d   1       6.351   4.269 -13.471  0.00  0.00    -0.270 OA
ENDROOT
BRANCH   1  12
ATOM     12  C   UNL d   1       9.667   2.361 -15.499  0.00  0.00     0.273 C 
ATOM     13  O   UNL d   1       8.946   2.595 -16.467  0.00  0.00    -0.269 OA
ATOM     14  N   UNL d   1      10.993   2.451 -15.545  0.00  0.00    -0.232 NA
BRANCH  14  15
ATOM     15  C   UNL d   1      11.707   2.853 -16.755  0.00  0.00     0.155 C 
BRANCH  15  16
ATOM     16  C   UNL d   1      11.969   1.707 -17.722  0.00  0.00     0.002 A 
ATOM     17  C   UNL d   1      11.237   0.496 -17.685  0.00  0.00    -0.002 A 
ATOM     18  C   UNL d   1      11.490  -0.532 -18.601  0.00  0.00    -0.000 A 
ATOM     19  C   UNL d   1      12.490  -0.370 -19.575  0.00  0.00    -0.000 A 
ATOM     20  C   UNL d   1      13.227   0.829 -19.628  0.00  0.00    -0.000 A 
ATOM     21  C   UNL d   1      12.968   1.869 -18.709  0.00  0.00    -0.002 A 
ENDBRANCH  15  16
ENDBRANCH  14  15
ENDBRANCH   1  12
BRANCH  10  22
ATOM     22  C   UNL d   1       8.624   4.791 -13.550  0.00  0.00     0.337 C 
BRANCH  22  23
ATOM     23  N   UNL d   1       8.448   5.695 -12.409  0.00  0.00     0.151 N 
ATOM     24  C   UNL d   1       9.226   6.891 -12.615  0.00  0.00     0.286 C 
ATOM     25  C   UNL d   1       9.104   7.938 -11.543  0.00  0.00     0.286 C 
ATOM     26  N   UNL d   1       9.500   7.346 -10.258  0.00  0.00     0.146 N 
ATOM     27  C   UNL d   1       8.705   6.127 -10.002  0.00  0.00     0.286 C 
ATOM     28  C   UNL d   1       8.830   5.117 -11.135  0.00  0.00     0.286 C 
BRANCH  26  29
ATOM     29  C   UNL d   1       9.429   8.342  -9.180  0.00  0.00     0.277 C 
BRANCH  29  30
ATOM     30  C   UNL d   1      10.092   7.949  -7.891  0.00  0.00     0.011 A 
ATOM     31  C   UNL d   1      11.219   8.690  -7.476  0.00  0.00    -0.002 A 
ATOM     32  C   UNL d   1      11.851   8.418  -6.248  0.00  0.00     0.011 A 
ATOM     33  C   UNL d   1      11.398   7.335  -5.471  0.00  0.00     0.058 A 
ATOM     34  C   UNL d   1      10.299   6.630  -5.902  0.00  0.00     0.011 A 
ATOM     35 CL   UNL d   1      12.103   6.909  -3.945  0.00  0.00    -0.082 Cl
ATOM     36  C   UNL d   1       9.590   6.921  -7.070  0.00  0.00    -0.002 A 
ENDBRANCH  29  30
ENDBRANCH  26  29
ENDBRANCH  22  23
ENDBRANCH  10  22
TORSDOF 7
