REMARK  5 active torsions:
REMARK  status: ('A' for Active; 'I' for Inactive)
REMARK    1  A    between atoms: N_6  and  C_7 
REMARK    2  A    between atoms: C_7  and  C_8 
REMARK    3  A    between atoms: C_8  and  N_9 
REMARK    4  A    between atoms: C_12  and  C_13 
REMARK    5  A    between atoms: N_15  and  C_16 
ROOT
ATOM      1  C   UNL d   1       8.399   3.489 -13.725  0.00  0.00    -0.003 A 
ATOM      2  C   UNL d   1       7.410   2.640 -14.142  0.00  0.00     0.076 A 
ATOM      3  N   UNL d   1       7.783   1.995 -15.312  0.00  0.00    -0.305 N 
ATOM      4  C   UNL d   1       9.056   2.439 -15.691  0.00  0.00     0.064 A 
ATOM      5  C   UNL d   1       9.899   2.108 -16.779  0.00  0.00     0.018 A 
ATOM      6  C   UNL d   1      11.144   2.751 -16.926  0.00  0.00     0.013 A 
ATOM      7  C   UNL d   1      11.544   3.723 -15.985  0.00  0.00     0.058 A 
ATOM      8 CL   UNL d   1      13.064   4.518 -16.142  0.00  0.00    -0.082 Cl
ATOM      9  C   UNL d   1      10.696   4.053 -14.915  0.00  0.00     0.013 A 
ATOM     10  C   UNL d   1       9.446   3.414 -14.717  0.00  0.00     0.014 A 
ENDROOT
BRANCH   1  11
ATOM     11  C   UNL d   1       8.342   4.319 -12.477  0.00  0.00     0.028 C 
ATOM     12  C   UNL d   1       8.039   5.779 -12.827  0.00  0.00     0.040 C 
ATOM     13  C   UNL d   1       8.137   6.674 -11.585  0.00  0.00     0.251 C 
ATOM     14  N   UNL d   1       9.444   6.562 -10.929  0.00  0.00     0.139 N 
ATOM     15  C   UNL d   1       9.562   5.187 -10.436  0.00  0.00     0.251 C 
ATOM     16  C   UNL d   1       9.636   4.246 -11.651  0.00  0.00     0.040 C 
BRANCH  14  17
ATOM     17  C   UNL d   1       9.473   7.481  -9.786  0.00  0.00     0.274 C 
BRANCH  17  18
ATOM     18  C   UNL d   1      10.900   7.619  -9.192  0.00  0.00     0.141 C 
BRANCH  18  19
ATOM     19  N   UNL d   1      10.857   7.570  -7.734  0.00  0.00    -0.297 N 
ATOM     20  C   UNL d   1      10.996   8.608  -6.868  0.00  0.00     0.342 A 
ATOM     21  O   UNL d   1      11.152   9.791  -7.169  0.00  0.00    -0.245 OA
ATOM     22  N   UNL d   1      10.971   8.141  -5.636  0.00  0.00    -0.217 NA
ATOM     23  C   UNL d   1      10.802   6.705  -5.545  0.00  0.00     0.155 A 
ATOM     24  C   UNL d   1      10.726   6.308  -7.017  0.00  0.00     0.132 A 
ENDBRANCH  18  19
ENDBRANCH  17  18
ENDBRANCH  14  17
ENDBRANCH   1  11
BRANCH   3  25
ATOM     25  C   UNL d   1       6.979   1.045 -15.998  0.00  0.00     0.064 A 
ATOM     26  C   UNL d   1       6.896   1.066 -17.411  0.00  0.00     0.020 A 
ATOM     27  C   UNL d   1       6.120   0.109 -18.090  0.00  0.00     0.031 A 
ATOM     28  C   UNL d   1       5.394  -0.851 -17.366  0.00  0.00     0.140 A 
ATOM     29  C   UNL d   1       5.442  -0.861 -15.959  0.00  0.00     0.031 A 
ATOM     30  F   UNL d   1       4.651  -1.767 -18.028  0.00  0.00    -0.204 F 
ATOM     31  C   UNL d   1       6.240   0.082 -15.274  0.00  0.00     0.020 A 
ENDBRANCH   3  25
TORSDOF 5
