REMARK  10 active torsions:
REMARK  status: ('A' for Active; 'I' for Inactive)
REMARK    1  A    between atoms: C_2  and  C_5 
REMARK    2  A    between atoms: C_7  and  N_8 
REMARK    3  A    between atoms: N_11  and  C_12 
REMARK    4  A    between atoms: C_12  and  C_13 
REMARK    5  A    between atoms: C_13  and  C_14 
REMARK    6  A    between atoms: C_14  and  C_15 
REMARK    7  A    between atoms: C_15  and  N_16 
REMARK       I    between atoms: N_16  and  C_17 
REMARK       I    between atoms: C_17  and  N_19 
REMARK    8  A    between atoms: N_19  and  C_20 
REMARK    9  A    between atoms: C_20  and  C_21 
REMARK   10  A    between atoms: C_30  and  C_31 
ROOT
ATOM      1  N   UNL d   1       9.572   1.594 -17.463  0.00  0.00    -0.330 N 
ATOM      2  C   UNL d   1      10.236   0.821 -16.423  0.00  0.00     0.138 C 
ATOM      3  C   UNL d   1       9.719   1.255 -15.037  0.00  0.00     0.274 C 
ATOM      4  N   UNL d   1       9.911   2.705 -14.859  0.00  0.00     0.141 N 
ATOM      5  C   UNL d   1       9.132   3.395 -15.888  0.00  0.00     0.274 C 
ATOM      6  C   UNL d   1       9.640   3.037 -17.288  0.00  0.00     0.138 C 
ENDROOT
BRANCH   4   7
ATOM      7  C   UNL d   1       9.407   3.090 -13.544  0.00  0.00     0.251 C 
BRANCH   7   8
ATOM      8  C   UNL d   1       9.832   4.507 -13.124  0.00  0.00     0.037 C 
BRANCH   8   9
ATOM      9  C   UNL d   1       9.296   4.887 -11.736  0.00  0.00     0.029 C 
BRANCH   9  10
ATOM     10  C   UNL d   1       9.676   6.320 -11.349  0.00  0.00     0.131 C 
BRANCH  10  11
ATOM     11  N   UNL d   1       9.064   6.741 -10.106  0.00  0.00    -0.217 NA
ATOM     12  C   UNL d   1       9.613   6.624  -8.896  0.00  0.00     0.360 C 
ATOM     13  O   UNL d   1      10.630   5.987  -8.641  0.00  0.00    -0.243 OA
ATOM     14  N   UNL d   1       8.916   7.270  -7.972  0.00  0.00    -0.213 NA
BRANCH  14  15
ATOM     15  C   UNL d   1       9.127   7.125  -6.550  0.00  0.00     0.157 C 
BRANCH  15  16
ATOM     16  C   UNL d   1      10.300   7.915  -6.015  0.00  0.00     0.002 A 
ATOM     17  C   UNL d   1      10.590   9.191  -6.539  0.00  0.00    -0.002 A 
ATOM     18  C   UNL d   1      11.648   9.950  -6.014  0.00  0.00    -0.000 A 
ATOM     19  C   UNL d   1      12.415   9.432  -4.954  0.00  0.00    -0.000 A 
ATOM     20  C   UNL d   1      12.117   8.165  -4.415  0.00  0.00    -0.000 A 
ATOM     21  C   UNL d   1      11.062   7.401  -4.950  0.00  0.00    -0.002 A 
ENDBRANCH  15  16
ENDBRANCH  14  15
ENDBRANCH  10  11
ENDBRANCH   9  10
ENDBRANCH   8   9
ENDBRANCH   7   8
ENDBRANCH   4   7
BRANCH   1  22
ATOM     22  C   UNL d   1       8.941   1.021 -18.579  0.00  0.00     0.143 A 
ATOM     23  N   UNL d   1       8.833   1.778 -19.690  0.00  0.00    -0.214 NA
ATOM     24  C   UNL d   1       8.213   1.266 -20.752  0.00  0.00     0.140 A 
ATOM     25  N   UNL d   1       7.710   0.028 -20.831  0.00  0.00    -0.227 NA
ATOM     26  C   UNL d   1       7.778  -0.740 -19.720  0.00  0.00     0.157 A 
ATOM     27  C   UNL d   1       8.400  -0.281 -18.546  0.00  0.00     0.060 A 
BRANCH  24  28
ATOM     28  C   UNL d   1       8.281   2.073 -22.064  0.00  0.00     0.052 C 
ATOM     29  C   UNL d   1       8.322   3.593 -21.776  0.00  0.00     0.008 C 
ATOM     30  C   UNL d   1       7.021   1.831 -22.926  0.00  0.00     0.008 C 
ATOM     31  C   UNL d   1       9.538   1.671 -22.859  0.00  0.00     0.008 C 
ENDBRANCH  24  28
BRANCH  26  32
ATOM     32  C   UNL d   1       7.136  -2.122 -19.813  0.00  0.00     0.435 C 
ATOM     33  F   UNL d   1       7.784  -2.843 -20.727  0.00  0.00    -0.165 F 
ATOM     34  F   UNL d   1       7.204  -2.768 -18.648  0.00  0.00    -0.165 F 
ATOM     35  F   UNL d   1       5.854  -2.021 -20.167  0.00  0.00    -0.165 F 
ENDBRANCH  26  32
ENDBRANCH   1  22
TORSDOF 10
