REMARK  6 active torsions:
REMARK  status: ('A' for Active; 'I' for Inactive)
REMARK    1  A    between atoms: O_2  and  C_3 
REMARK    2  A    between atoms: C_7  and  O_8 
REMARK    3  A    between atoms: O_8  and  C_9 
REMARK    4  A    between atoms: C_9  and  C_10 
REMARK    5  A    between atoms: C_10  and  N_11 
REMARK       I    between atoms: N_14  and  C_15 
REMARK    6  A    between atoms: C_15  and  C_17 
ROOT
ATOM      1  N   UNL d   1       8.705   6.013 -10.633  0.00  0.00     0.144 N 
ATOM      2  C   UNL d   1       9.091   5.683  -9.265  0.00  0.00     0.274 C 
ATOM      3  C   UNL d   1       9.248   6.961  -8.407  0.00  0.00     0.140 C 
ATOM      4  N   UNL d   1      10.296   7.818  -9.014  0.00  0.00    -0.311 N 
ATOM      5  C   UNL d   1      11.418   8.310  -8.433  0.00  0.00     0.275 C 
ATOM      6  O   UNL d   1      12.329   8.800  -9.108  0.00  0.00    -0.266 OA
ATOM      7  C   UNL d   1       9.953   8.159 -10.406  0.00  0.00     0.140 C 
ATOM      8  C   UNL d   1       9.713   6.874 -11.226  0.00  0.00     0.274 C 
ENDROOT
BRANCH   1   9
ATOM      9  C   UNL d   1       8.459   4.842 -11.464  0.00  0.00     0.283 C 
BRANCH   9  10
ATOM     10  C   UNL d   1       6.941   4.620 -11.676  0.00  0.00     0.184 C 
BRANCH  10  11
ATOM     11  O   UNL d   1       6.641   4.460 -13.068  0.00  0.00    -0.329 OA
BRANCH  11  12
ATOM     12  C   UNL d   1       6.675   3.170 -13.555  0.00  0.00     0.096 A 
ATOM     13  C   UNL d   1       7.710   2.798 -14.435  0.00  0.00     0.024 A 
ATOM     14  C   UNL d   1       7.723   1.512 -14.997  0.00  0.00     0.004 A 
ATOM     15  C   UNL d   1       6.700   0.588 -14.704  0.00  0.00     0.024 A 
ATOM     16  C   UNL d   1       5.640   0.950 -13.833  0.00  0.00     0.096 A 
ATOM     17  C   UNL d   1       5.657   2.239 -13.244  0.00  0.00     0.048 A 
BRANCH  16  18
ATOM     18  O   UNL d   1       4.565   0.127 -13.534  0.00  0.00    -0.328 OA
ATOM     19  C   UNL d   1       4.271  -0.958 -14.421  0.00  0.00     0.181 C 
ENDBRANCH  16  18
ENDBRANCH  11  12
ENDBRANCH  10  11
ENDBRANCH   9  10
ENDBRANCH   1   9
BRANCH   5  20
ATOM     20  C   UNL d   1      11.509   8.400  -6.962  0.00  0.00     0.137 C 
ATOM     21  N   UNL d   1      11.438   7.233  -6.230  0.00  0.00    -0.241 NA
ATOM     22  C   UNL d   1      11.555   7.503  -4.889  0.00  0.00     0.085 A 
ATOM     23  C   UNL d   1      11.841   8.883  -4.762  0.00  0.00     0.038 A 
ATOM     24  C   UNL d   1      11.514   6.673  -3.783  0.00  0.00     0.040 A 
ATOM     25  C   UNL d   1      11.848   9.434  -6.104  0.00  0.00     0.027 C 
ATOM     26  C   UNL d   1      12.061   9.357  -3.438  0.00  0.00     0.101 A 
ATOM     27  N   UNL d   1      12.026   8.533  -2.353  0.00  0.00    -0.242 NA
ATOM     28  C   UNL d   1      11.756   7.227  -2.531  0.00  0.00     0.101 A 
ENDBRANCH   5  20
TORSDOF 6
