REMARK  7 active torsions:
REMARK  status: ('A' for Active; 'I' for Inactive)
REMARK    1  A    between atoms: C_2  and  C_3 
REMARK    2  A    between atoms: N_15  and  C_16 
REMARK    3  A    between atoms: C_16  and  C_18 
REMARK    4  A    between atoms: C_18  and  C_19 
REMARK    5  A    between atoms: C_19  and  S_20 
REMARK    6  A    between atoms: S_20  and  C_21 
REMARK    7  A    between atoms: C_24  and  C_25 
ROOT
ATOM      1  C   UNL d   1      13.040   1.793 -20.877  0.00  0.00     0.045 C 
ENDROOT
BRANCH   1   2
ATOM      2  C   UNL d   1      12.894   3.197 -20.226  0.00  0.00     0.220 C 
ATOM      3  C   UNL d   1      11.740   3.948 -20.934  0.00  0.00     0.035 C 
BRANCH   2   4
ATOM      4  N   UNL d   1      12.638   3.091 -18.779  0.00  0.00     0.136 N 
ATOM      5  C   UNL d   1      11.459   2.311 -18.364  0.00  0.00     0.255 C 
ATOM      6  C   UNL d   1      11.567   1.789 -16.910  0.00  0.00     0.062 C 
ATOM      7  C   UNL d   1      11.099   2.805 -15.889  0.00  0.00    -0.016 A 
ATOM      8  C   UNL d   1      11.810   4.036 -15.763  0.00  0.00    -0.022 A 
ATOM      9  C   UNL d   1       9.943   2.587 -15.104  0.00  0.00     0.055 A 
ATOM     10  C   UNL d   1      11.367   5.033 -14.861  0.00  0.00     0.017 A 
ATOM     11  C   UNL d   1      13.037   4.340 -16.624  0.00  0.00     0.061 C 
ATOM     12  C   UNL d   1      10.229   4.807 -14.051  0.00  0.00     0.106 A 
ATOM     13  N   UNL d   1       9.596   5.572 -13.093  0.00  0.00    -0.224 NA
ATOM     14  C   UNL d   1       9.532   3.589 -14.213  0.00  0.00     0.125 A 
ATOM     15  C   UNL d   1       8.560   4.808 -12.722  0.00  0.00     0.159 A 
ATOM     16  O   UNL d   1       8.431   3.611 -13.368  0.00  0.00    -0.291 OA
ATOM     17  C   UNL d   1      12.738   4.414 -18.139  0.00  0.00     0.255 C 
ATOM     18 BR   UNL d   1       8.883   1.007 -15.227  0.00  0.00    -0.047 Br
BRANCH  15  19
ATOM     19  C   UNL d   1       7.511   5.189 -11.739  0.00  0.00     0.072 C 
ATOM     20  C   UNL d   1       6.369   5.973 -12.386  0.00  0.00     0.009 C 
ENDBRANCH  15  19
ENDBRANCH   2   4
ENDBRANCH   1   2
BRANCH   1  21
ATOM     21  C   UNL d   1      14.012   0.805 -20.159  0.00  0.00     0.067 C 
BRANCH  21  22
ATOM     22  S   UNL d   1      13.466  -0.928 -20.273  0.00  0.00    -0.075 SA
BRANCH  22  23
ATOM     23  C   UNL d   1      11.819  -0.759 -19.689  0.00  0.00     0.193 C 
ATOM     24  N   UNL d   1      10.756  -0.545 -20.507  0.00  0.00    -0.289 N 
ATOM     25  C   UNL d   1       9.745  -0.325 -19.650  0.00  0.00     0.167 C 
ATOM     26  C   UNL d   1      10.775  -0.507 -21.970  0.00  0.00     0.134 C 
ATOM     27  N   UNL d   1      10.113  -0.559 -18.396  0.00  0.00    -0.128 NA
ATOM     28  N   UNL d   1      11.481  -0.830 -18.412  0.00  0.00    -0.122 NA
BRANCH  25  29
ATOM     29  C   UNL d   1       8.392   0.077 -20.018  0.00  0.00     0.037 A 
ATOM     30  C   UNL d   1       7.250  -0.662 -19.599  0.00  0.00     0.021 A 
ATOM     31  C   UNL d   1       5.951  -0.283 -20.012  0.00  0.00     0.081 A 
ATOM     32  C   UNL d   1       7.380  -1.804 -18.768  0.00  0.00     0.003 A 
ATOM     33  C   UNL d   1       5.793   0.835 -20.858  0.00  0.00     0.019 A 
ATOM     34  N   UNL d   1       4.848  -0.980 -19.637  0.00  0.00    -0.250 NA
ATOM     35  C   UNL d   1       6.914   1.587 -21.268  0.00  0.00     0.002 A 
ATOM     36  C   UNL d   1       8.200   1.221 -20.835  0.00  0.00     0.003 A 
ATOM     37  C   UNL d   1       5.001  -2.054 -18.839  0.00  0.00     0.059 A 
ATOM     38  C   UNL d   1       3.746  -2.798 -18.447  0.00  0.00     0.052 C 
ATOM     39  C   UNL d   1       6.239  -2.500 -18.373  0.00  0.00     0.015 A 
ENDBRANCH  25  29
ENDBRANCH  22  23
ENDBRANCH  21  22
ENDBRANCH   1  21
TORSDOF 7
