REMARK  6 active torsions:
REMARK  status: ('A' for Active; 'I' for Inactive)
REMARK    1  A    between atoms: C_2  and  C_3 
REMARK    2  A    between atoms: C_3  and  N_4 
REMARK    3  A    between atoms: N_4  and  C_5 
REMARK    4  A    between atoms: N_4  and  C_8 
REMARK    5  A    between atoms: C_15  and  C_16 
REMARK       I    between atoms: C_16  and  N_18 
REMARK    6  A    between atoms: N_18  and  C_19 
ROOT
ATOM      1  C   UNL d   1       7.470   4.376 -12.063  0.00  0.00     0.112 C 
ATOM      2  C   UNL d   1       5.958   4.159 -12.243  0.00  0.00     0.171 C 
ATOM      3  O   UNL d   1       5.634   2.819 -12.624  0.00  0.00    -0.329 OA
ATOM      4  C   UNL d   1       6.379   2.277 -13.661  0.00  0.00     0.090 A 
ATOM      5  C   UNL d   1       5.852   1.149 -14.332  0.00  0.00     0.024 A 
ATOM      6  C   UNL d   1       6.556   0.559 -15.406  0.00  0.00     0.002 A 
ATOM      7  C   UNL d   1       7.791   1.081 -15.806  0.00  0.00     0.005 A 
ATOM      8  C   UNL d   1       8.347   2.182 -15.115  0.00  0.00     0.056 A 
ATOM      9  C   UNL d   1       7.644   2.769 -14.045  0.00  0.00     0.007 A 
ATOM     10  C   UNL d   1       8.235   3.975 -13.321  0.00  0.00     0.053 C 
ENDROOT
BRANCH   1  11
ATOM     11  N   UNL d   1       7.910   5.684 -11.548  0.00  0.00    -0.369 N 
BRANCH  11  12
ATOM     12  C   UNL d   1       9.084   5.548 -10.653  0.00  0.00     0.097 C 
BRANCH  12  13
ATOM     13  C   UNL d   1       8.644   5.396  -9.187  0.00  0.00     0.024 C 
ATOM     14  C   UNL d   1       9.835   5.685  -8.253  0.00  0.00     0.002 C 
ENDBRANCH  12  13
ENDBRANCH  11  12
BRANCH  11  15
ATOM     15  C   UNL d   1       7.908   6.821 -12.520  0.00  0.00     0.077 C 
ATOM     16  C   UNL d   1       8.882   7.968 -12.158  0.00  0.00     0.024 C 
ATOM     17  C   UNL d   1       6.493   7.442 -12.710  0.00  0.00     0.024 C 
ENDBRANCH  11  15
ENDBRANCH   1  11
BRANCH   8  18
ATOM     18  C   UNL d   1       9.687   2.698 -15.541  0.00  0.00     0.275 C 
ATOM     19  O   UNL d   1      10.606   2.768 -14.731  0.00  0.00    -0.266 OA
ATOM     20  N   UNL d   1       9.785   3.076 -16.819  0.00  0.00    -0.236 NA
BRANCH  20  21
ATOM     21  C   UNL d   1      10.991   3.635 -17.442  0.00  0.00     0.107 C 
ATOM     22  C   UNL d   1      12.165   2.640 -17.336  0.00  0.00     0.026 C 
ATOM     23  C   UNL d   1      11.330   5.025 -16.864  0.00  0.00     0.026 C 
ENDBRANCH  20  21
ENDBRANCH   8  18
TORSDOF 6
