REMARK  11 active torsions:
REMARK  status: ('A' for Active; 'I' for Inactive)
REMARK    1  A    between atoms: C_2  and  C_3 
REMARK    2  A    between atoms: C_3  and  N_4 
REMARK    3  A    between atoms: N_4  and  C_5 
REMARK    4  A    between atoms: N_4  and  C_22 
REMARK    5  A    between atoms: C_5  and  C_6 
REMARK    6  A    between atoms: C_6  and  C_7 
REMARK    7  A    between atoms: C_7  and  C_8 
REMARK    8  A    between atoms: C_8  and  N_9 
REMARK       I    between atoms: N_9  and  C_10 
REMARK    9  A    between atoms: C_10  and  C_12 
REMARK   10  A    between atoms: C_22  and  C_23 
REMARK   11  A    between atoms: C_25  and  C_26 
ROOT
ATOM      1  C   UNL d   1       8.544   5.245 -12.656  0.00  0.00     0.250 C 
ENDROOT
BRANCH   1   2
ATOM      2  N   UNL d   1       7.548   4.832 -13.619  0.00  0.00     0.137 N 
BRANCH   2   3
ATOM      3  C   UNL d   1       6.154   4.835 -13.134  0.00  0.00     0.250 C 
BRANCH   3   4
ATOM      4  C   UNL d   1       5.831   3.842 -11.982  0.00  0.00     0.035 C 
ATOM      5  C   UNL d   1       5.352   2.443 -12.433  0.00  0.00     0.002 C 
ENDBRANCH   3   4
ENDBRANCH   2   3
BRANCH   2   6
ATOM      6  C   UNL d   1       7.868   3.499 -14.105  0.00  0.00     0.251 C 
BRANCH   6   7
ATOM      7  C   UNL d   1       9.068   3.351 -15.032  0.00  0.00     0.038 A 
ATOM      8  C   UNL d   1       9.070   2.165 -16.001  0.00  0.00     0.024 A 
ATOM      9  C   UNL d   1      10.041   2.203 -14.844  0.00  0.00     0.007 A 
BRANCH   8  10
ATOM     10  C   UNL d   1       7.897   1.200 -16.061  0.00  0.00    -0.022 A 
ATOM     11  C   UNL d   1       7.233   0.930 -17.290  0.00  0.00    -0.003 A 
ATOM     12  C   UNL d   1       6.112   0.070 -17.349  0.00  0.00     0.011 A 
ATOM     13  C   UNL d   1       5.631  -0.528 -16.163  0.00  0.00     0.058 A 
ATOM     14  C   UNL d   1       6.277  -0.268 -14.939  0.00  0.00     0.011 A 
ATOM     15 CL   UNL d   1       4.244  -1.561 -16.188  0.00  0.00    -0.082 Cl
ATOM     16  C   UNL d   1       7.419   0.557 -14.896  0.00  0.00    -0.003 A 
ENDBRANCH   8  10
ENDBRANCH   6   7
ENDBRANCH   2   6
ENDBRANCH   1   2
BRANCH   1  17
ATOM     17  C   UNL d   1       8.425   6.741 -12.316  0.00  0.00     0.037 C 
BRANCH  17  18
ATOM     18  C   UNL d   1       9.203   7.106 -11.047  0.00  0.00     0.029 C 
BRANCH  18  19
ATOM     19  C   UNL d   1       8.668   6.351  -9.800  0.00  0.00     0.129 C 
BRANCH  19  20
ATOM     20  N   UNL d   1       9.078   7.034  -8.583  0.00  0.00    -0.234 NA
ATOM     21  C   UNL d   1      10.078   6.601  -7.804  0.00  0.00     0.275 C 
ATOM     22  O   UNL d   1      10.664   5.567  -8.027  0.00  0.00    -0.266 OA
BRANCH  21  23
ATOM     23  C   UNL d   1      10.462   7.434  -6.630  0.00  0.00     0.058 A 
ATOM     24  C   UNL d   1      11.074   6.795  -5.521  0.00  0.00     0.005 A 
ATOM     25  C   UNL d   1      11.491   7.561  -4.421  0.00  0.00     0.000 A 
ATOM     26  C   UNL d   1      11.317   8.963  -4.438  0.00  0.00     0.000 A 
ATOM     27  C   UNL d   1      12.057   6.921  -3.293  0.00  0.00     0.000 A 
ATOM     28  C   UNL d   1      10.721   9.594  -5.559  0.00  0.00     0.000 A 
ATOM     29  C   UNL d   1      11.684   9.720  -3.319  0.00  0.00     0.000 A 
ATOM     30  C   UNL d   1      10.295   8.829  -6.653  0.00  0.00     0.005 A 
ATOM     31  C   UNL d   1      12.259   9.089  -2.198  0.00  0.00     0.000 A 
ATOM     32  C   UNL d   1      12.437   7.697  -2.183  0.00  0.00     0.000 A 
ENDBRANCH  21  23
ENDBRANCH  19  20
ENDBRANCH  18  19
ENDBRANCH  17  18
ENDBRANCH   1  17
TORSDOF 11
