REMARK  6 active torsions:
REMARK  status: ('A' for Active; 'I' for Inactive)
REMARK    1  A    between atoms: N_9  and  C_10 
REMARK    2  A    between atoms: C_10  and  C_11 
REMARK    3  A    between atoms: C_11  and  C_12 
REMARK    4  A    between atoms: C_12  and  C_13 
REMARK    5  A    between atoms: C_13  and  N_14 
REMARK    6  A    between atoms: N_17  and  C_18 
ROOT
ATOM      1  C   UNL d   1       7.929   5.150 -10.555  0.00  0.00     0.251 C 
ENDROOT
BRANCH   1   2
ATOM      2  C   UNL d   1       9.162   5.570  -9.753  0.00  0.00     0.037 C 
BRANCH   2   3
ATOM      3  C   UNL d   1       8.802   5.878  -8.307  0.00  0.00     0.026 C 
BRANCH   3   4
ATOM      4  C   UNL d   1       9.153   7.318  -7.926  0.00  0.00     0.097 C 
BRANCH   4   5
ATOM      5  N   UNL d   1      10.596   7.593  -7.920  0.00  0.00    -0.368 N 
ATOM      6  C   UNL d   1      10.934   8.998  -7.704  0.00  0.00     0.102 C 
ATOM      7  C   UNL d   1      10.417   9.549  -6.353  0.00  0.00     0.058 C 
ATOM      8  C   UNL d   1      11.068   8.972  -5.149  0.00  0.00     0.026 A 
ATOM      9  C   UNL d   1      11.348   7.643  -4.882  0.00  0.00     0.065 A 
ATOM     10  S   UNL d   1      11.455   9.966  -3.788  0.00  0.00    -0.050 SA
ATOM     11  N   UNL d   1      11.952   7.428  -3.650  0.00  0.00    -0.224 NA
ATOM     12  C   UNL d   1      11.059   6.448  -5.715  0.00  0.00     0.070 C 
ATOM     13  C   UNL d   1      12.090   8.553  -2.974  0.00  0.00     0.214 A 
ATOM     14  N   UNL d   1      12.629   8.637  -1.721  0.00  0.00    -0.120 N 
ATOM     15  C   UNL d   1      11.456   6.649  -7.182  0.00  0.00     0.103 C 
ENDBRANCH   4   5
ENDBRANCH   3   4
ENDBRANCH   2   3
ENDBRANCH   1   2
BRANCH   1  16
ATOM     16  N   UNL d   1       8.231   4.984 -11.969  0.00  0.00     0.141 N 
ATOM     17  C   UNL d   1       7.064   4.336 -12.560  0.00  0.00     0.274 C 
ATOM     18  C   UNL d   1       7.336   4.150 -14.044  0.00  0.00     0.137 C 
ATOM     19  N   UNL d   1       8.589   3.446 -14.309  0.00  0.00    -0.344 N 
ATOM     20  C   UNL d   1       9.743   3.987 -13.650  0.00  0.00     0.137 C 
ATOM     21  C   UNL d   1       9.437   4.175 -12.185  0.00  0.00     0.274 C 
BRANCH  19  22
ATOM     22  C   UNL d   1       8.694   2.330 -15.191  0.00  0.00     0.068 A 
ATOM     23  C   UNL d   1       9.762   2.147 -16.112  0.00  0.00     0.084 A 
ATOM     24  C   UNL d   1       9.807   0.965 -16.913  0.00  0.00     0.070 A 
ATOM     25 CL   UNL d   1      11.003   3.332 -16.378  0.00  0.00    -0.080 Cl
ATOM     26  C   UNL d   1       8.777   0.032 -16.822  0.00  0.00     0.012 A 
ATOM     27 CL   UNL d   1      11.110   0.682 -18.007  0.00  0.00    -0.081 Cl
ATOM     28  C   UNL d   1       7.706   0.224 -15.949  0.00  0.00     0.002 A 
ATOM     29  C   UNL d   1       7.668   1.375 -15.124  0.00  0.00     0.018 A 
ENDBRANCH  19  22
ENDBRANCH   1  16
TORSDOF 6
