REMARK  9 active torsions:
REMARK  status: ('A' for Active; 'I' for Inactive)
REMARK    1  A    between atoms: O_2  and  C_3 
REMARK    2  A    between atoms: C_8  and  C_9 
REMARK    3  A    between atoms: C_11  and  C_12 
REMARK    4  A    between atoms: C_12  and  N_13 
REMARK    5  A    between atoms: N_13  and  C_14 
REMARK    6  A    between atoms: C_14  and  C_15 
REMARK    7  A    between atoms: C_15  and  C_16 
REMARK    8  A    between atoms: C_16  and  O_17 
REMARK    9  A    between atoms: O_17  and  C_18 
ROOT
ATOM      1  C   UNL d   1       8.759   2.622 -14.171  0.00  0.00     0.293 C 
ENDROOT
BRANCH   1   2
ATOM      2  N   UNL d   1       9.658   1.491 -14.451  0.00  0.00     0.339 N 
BRANCH   2   3
ATOM      3  C   UNL d   1       8.974   0.430 -15.206  0.00  0.00     0.290 C 
BRANCH   3   4
ATOM      4  C   UNL d   1       8.553   0.949 -16.591  0.00  0.00     0.041 A 
ATOM      5  C   UNL d   1       7.106   0.876 -17.077  0.00  0.00     0.026 A 
ATOM      6  C   UNL d   1       8.154  -0.026 -17.675  0.00  0.00     0.007 A 
BRANCH   5   7
ATOM      7  C   UNL d   1       6.019   0.330 -16.192  0.00  0.00    -0.000 A 
ATOM      8  C   UNL d   1       5.151  -0.705 -16.655  0.00  0.00     0.090 A 
ATOM      9  C   UNL d   1       4.196  -1.248 -15.740  0.00  0.00     0.024 A 
ATOM     10  C   UNL d   1       4.105  -0.781 -14.413  0.00  0.00     0.002 A 
ATOM     11  C   UNL d   1       4.963   0.253 -13.984  0.00  0.00    -0.000 A 
ATOM     12  C   UNL d   1       5.898   0.832 -14.873  0.00  0.00    -0.002 A 
BRANCH   8  13
ATOM     13  O   UNL d   1       5.331  -1.136 -17.945  0.00  0.00    -0.328 OA
ATOM     14  C   UNL d   1       4.440  -2.118 -18.424  0.00  0.00     0.181 C 
ENDBRANCH   8  13
ENDBRANCH   5   7
ENDBRANCH   3   4
ENDBRANCH   2   3
ENDBRANCH   1   2
BRANCH   1  15
ATOM     15  C   UNL d   1       9.476   3.709 -13.362  0.00  0.00     0.071 C 
BRANCH  15  16
ATOM     16  C   UNL d   1       8.470   4.829 -12.964  0.00  0.00     0.151 C 
BRANCH  16  17
ATOM     17  O   UNL d   1       9.218   5.929 -12.418  0.00  0.00    -0.331 OA
BRANCH  17  18
ATOM     18  C   UNL d   1       9.302   6.095 -11.043  0.00  0.00     0.096 A 
ATOM     19  C   UNL d   1       9.992   7.222 -10.531  0.00  0.00     0.043 A 
ATOM     20  C   UNL d   1      10.055   7.447  -9.131  0.00  0.00     0.087 A 
ATOM     21  C   UNL d   1       9.400   6.542  -8.267  0.00  0.00     0.018 A 
ATOM     22  N   UNL d   1      10.751   8.546  -8.570  0.00  0.00    -0.208 NA
ATOM     23  C   UNL d   1       8.723   5.427  -8.778  0.00  0.00     0.004 A 
ATOM     24  C   UNL d   1       9.467   6.813  -6.836  0.00  0.00     0.006 A 
ATOM     25  C   UNL d   1       8.689   5.184 -10.154  0.00  0.00     0.024 A 
ATOM     26  C   UNL d   1      10.147   7.873  -6.356  0.00  0.00     0.063 A 
ATOM     27  C   UNL d   1      10.832   8.805  -7.247  0.00  0.00     0.279 A 
ATOM     28  O   UNL d   1      11.450   9.790  -6.831  0.00  0.00    -0.265 OA
ENDBRANCH  17  18
ENDBRANCH  16  17
ENDBRANCH  15  16
ENDBRANCH   1  15
TORSDOF 9
