REMARK  2 active torsions:
REMARK  status: ('A' for Active; 'I' for Inactive)
REMARK    1  A    between atoms: C_2  and  O_3 
REMARK    2  A    between atoms: O_3  and  C_4 
ROOT
ATOM      1  O   UNL d   1      11.408   8.213  -5.063  0.00  0.00    -0.282 OA
ENDROOT
BRANCH   1   2
ATOM      2  C   UNL d   1      10.580   8.098  -6.218  0.00  0.00     0.154 C 
ATOM      3  C   UNL d   1      11.249   8.720  -7.453  0.00  0.00     0.035 C 
ENDBRANCH   1   2
BRANCH   1   4
ATOM      4  C   UNL d   1      11.456   9.362  -4.370  0.00  0.00     0.406 C 
ATOM      5  N   UNL d   1      12.280   9.188  -3.288  0.00  0.00    -0.079 N 
ATOM      6  O   UNL d   1      10.838  10.390  -4.647  0.00  0.00    -0.234 OA
ENDBRANCH   1   4
TORSDOF 2
