REMARK  8 active torsions:
REMARK  status: ('A' for Active; 'I' for Inactive)
REMARK    1  A    between atoms: C_2  and  C_4 
REMARK       I    between atoms: C_4  and  N_6 
REMARK    2  A    between atoms: N_6  and  C_7 
REMARK    3  A    between atoms: C_11  and  C_12 
REMARK    4  A    between atoms: N_15  and  C_16 
REMARK    5  A    between atoms: C_16  and  C_17 
REMARK    6  A    between atoms: C_21  and  O_22 
REMARK    7  A    between atoms: O_22  and  C_23 
REMARK    8  A    between atoms: C_26  and  C_27 
ROOT
ATOM      1  C   UNL d   1       8.101   4.472 -12.225  0.00  0.00     0.026 C 
ATOM      2  C   UNL d   1       8.831   3.965 -13.484  0.00  0.00     0.040 C 
ATOM      3  C   UNL d   1       8.273   2.625 -13.921  0.00  0.00     0.251 C 
ATOM      4  N   UNL d   1       6.848   2.763 -14.243  0.00  0.00     0.141 N 
ATOM      5  C   UNL d   1       6.102   3.115 -13.008  0.00  0.00     0.251 C 
ATOM      6  C   UNL d   1       6.590   4.461 -12.452  0.00  0.00     0.040 C 
ENDROOT
BRANCH   4   7
ATOM      7  C   UNL d   1       6.314   1.515 -14.806  0.00  0.00     0.277 C 
BRANCH   7   8
ATOM      8  C   UNL d   1       6.700   1.258 -16.269  0.00  0.00     0.013 A 
ATOM      9  C   UNL d   1       7.798   1.865 -16.882  0.00  0.00     0.022 A 
ATOM     10  C   UNL d   1       8.186   1.574 -18.182  0.00  0.00     0.100 A 
ATOM     11  C   UNL d   1       7.362   0.725 -18.967  0.00  0.00     0.025 A 
ATOM     12  C   UNL d   1       6.192   0.172 -18.413  0.00  0.00     0.002 A 
ATOM     13  C   UNL d   1       5.864   0.405 -17.059  0.00  0.00    -0.002 A 
BRANCH  10  14
ATOM     14  O   UNL d   1       9.340   2.116 -18.650  0.00  0.00    -0.307 OA
BRANCH  14  15
ATOM     15  C   UNL d   1       9.257   3.373 -19.199  0.00  0.00     0.100 A 
ATOM     16  C   UNL d   1       9.060   3.459 -20.582  0.00  0.00     0.024 A 
ATOM     17  C   UNL d   1       8.974   4.711 -21.205  0.00  0.00    -0.002 A 
ATOM     18  C   UNL d   1       9.080   5.913 -20.466  0.00  0.00    -0.023 A 
ATOM     19  C   UNL d   1       9.278   5.815 -19.063  0.00  0.00    -0.002 A 
ATOM     20  C   UNL d   1       9.374   4.554 -18.436  0.00  0.00     0.024 A 
BRANCH  18  21
ATOM     21  C   UNL d   1       8.975   7.284 -21.167  0.00  0.00     0.019 C 
ATOM     22  C   UNL d   1       7.620   7.937 -20.828  0.00  0.00     0.004 C 
ATOM     23  C   UNL d   1       9.067   7.174 -22.709  0.00  0.00     0.004 C 
ATOM     24  C   UNL d   1      10.124   8.207 -20.709  0.00  0.00     0.004 C 
ENDBRANCH  18  21
ENDBRANCH  14  15
ENDBRANCH  10  14
ENDBRANCH   7   8
ENDBRANCH   4   7
BRANCH   1  25
ATOM     25  C   UNL d   1       8.608   5.828 -11.818  0.00  0.00    -0.021 A 
ATOM     26  C   UNL d   1       8.599   6.877 -12.744  0.00  0.00    -0.004 A 
ATOM     27  C   UNL d   1       9.056   8.148 -12.371  0.00  0.00     0.001 A 
ATOM     28  C   UNL d   1       9.525   8.352 -11.076  0.00  0.00     0.019 A 
ATOM     29  C   UNL d   1       9.541   7.305 -10.139  0.00  0.00     0.084 A 
ATOM     30  C   UNL d   1       9.074   6.033 -10.518  0.00  0.00     0.015 A 
BRANCH  29  31
ATOM     31  N   UNL d   1       9.995   7.626  -8.850  0.00  0.00    -0.212 NA
ATOM     32  C   UNL d   1      10.443   6.807  -7.892  0.00  0.00     0.255 C 
ATOM     33  O   UNL d   1      10.282   5.594  -7.899  0.00  0.00    -0.270 OA
BRANCH  32  34
ATOM     34  C   UNL d   1      11.213   7.465  -6.741  0.00  0.00     0.081 C 
ATOM     35  C   UNL d   1      10.633   7.074  -5.374  0.00  0.00     0.010 C 
ATOM     36  C   UNL d   1      11.330   8.995  -6.891  0.00  0.00     0.010 C 
ENDBRANCH  32  34
ENDBRANCH  29  31
ENDBRANCH   1  25
TORSDOF 8
