REMARK  4 active torsions:
REMARK  status: ('A' for Active; 'I' for Inactive)
REMARK    1  A    between atoms: C_10  and  C_11 
REMARK    2  A    between atoms: C_11  and  C_12 
REMARK    3  A    between atoms: C_12  and  N_13 
REMARK    4  A    between atoms: C_16  and  C_17 
ROOT
ATOM      1  N   UNL d   1       9.010   6.229  -9.680  0.00  0.00     0.137 N 
ATOM      2  C   UNL d   1      10.438   6.493  -9.784  0.00  0.00     0.251 C 
ATOM      3  C   UNL d   1      10.886   7.527  -8.757  0.00  0.00     0.041 C 
ATOM      4  C   UNL d   1      10.511   7.101  -7.327  0.00  0.00     0.047 C 
ATOM      5  C   UNL d   1       9.021   6.743  -7.264  0.00  0.00     0.041 C 
ATOM      6  C   UNL d   1       8.665   5.716  -8.352  0.00  0.00     0.251 C 
ENDROOT
BRANCH   1   7
ATOM      7  C   UNL d   1       8.562   5.282 -10.696  0.00  0.00     0.251 C 
BRANCH   7   8
ATOM      8  C   UNL d   1       8.418   5.936 -12.087  0.00  0.00     0.043 C 
BRANCH   8   9
ATOM      9  C   UNL d   1       8.034   4.934 -13.198  0.00  0.00     0.064 C 
ATOM     10  C   UNL d   1       9.196   3.965 -13.543  0.00  0.00     0.174 C 
ATOM     11  O   UNL d   1      10.368   4.231 -13.274  0.00  0.00    -0.291 OA
ATOM     12  C   UNL d   1       8.810   2.739 -14.268  0.00  0.00     0.055 A 
ATOM     13  C   UNL d   1       7.495   2.434 -14.442  0.00  0.00     0.080 A 
ATOM     14  C   UNL d   1       9.543   1.676 -14.863  0.00  0.00     0.031 A 
ATOM     15  O   UNL d   1       7.340   1.283 -15.148  0.00  0.00    -0.309 OA
ATOM     16  C   UNL d   1       6.287   3.180 -13.996  0.00  0.00     0.052 C 
ATOM     17  C   UNL d   1       8.602   0.832 -15.391  0.00  0.00     0.122 A 
ATOM     18  C   UNL d   1       6.686   4.200 -12.912  0.00  0.00     0.015 C 
ENDBRANCH   8   9
ENDBRANCH   7   8
ENDBRANCH   1   7
BRANCH   4  19
ATOM     19  C   UNL d   1      10.885   8.167  -6.325  0.00  0.00     0.087 A 
ATOM     20  C   UNL d   1      11.452   8.066  -5.039  0.00  0.00     0.041 A 
ATOM     21  C   UNL d   1      11.565   9.342  -4.489  0.00  0.00     0.129 A 
ATOM     22  C   UNL d   1      11.856   6.946  -4.283  0.00  0.00     0.006 A 
ATOM     23  O   UNL d   1      11.059  10.205  -5.444  0.00  0.00    -0.211 OA
ATOM     24  C   UNL d   1      12.080   9.578  -3.215  0.00  0.00     0.057 A 
ATOM     25  N   UNL d   1      10.636   9.456  -6.572  0.00  0.00    -0.131 NA
ATOM     26  C   UNL d   1      12.508   8.465  -2.463  0.00  0.00     0.142 A 
ATOM     27  F   UNL d   1      13.053   8.654  -1.238  0.00  0.00    -0.204 F 
ATOM     28  C   UNL d   1      12.387   7.157  -2.988  0.00  0.00     0.030 A 
ENDBRANCH   4  19
TORSDOF 4
