REMARK  6 active torsions:
REMARK  status: ('A' for Active; 'I' for Inactive)
REMARK    1  A    between atoms: C_2  and  C_3 
REMARK       I    between atoms: C_3  and  N_5 
REMARK    2  A    between atoms: N_5  and  C_6 
REMARK    3  A    between atoms: C_9  and  C_10 
REMARK    4  A    between atoms: C_10  and  C_11 
REMARK    5  A    between atoms: C_11  and  N_12 
REMARK    6  A    between atoms: C_15  and  C_16 
ROOT
ATOM      1  C   UNL d   1       8.779   5.191 -10.333  0.00  0.00     0.250 C 
ENDROOT
BRANCH   1   2
ATOM      2  C   UNL d   1       9.167   5.649 -11.754  0.00  0.00     0.035 C 
BRANCH   2   3
ATOM      3  C   UNL d   1       9.062   4.536 -12.808  0.00  0.00     0.002 C 
ATOM      4  C   UNL d   1       9.134   5.145 -14.207  0.00  0.00     0.002 C 
ATOM      5  C   UNL d   1       9.058   4.076 -15.299  0.00  0.00     0.024 C 
ATOM      6  C   UNL d   1      10.193   3.061 -15.155  0.00  0.00     0.106 C 
ATOM      7  C   UNL d   1      10.160   2.432 -13.761  0.00  0.00     0.024 C 
ATOM      8  C   UNL d   1      10.222   3.524 -12.689  0.00  0.00     0.002 C 
BRANCH   6   9
ATOM      9  N   UNL d   1      10.026   2.015 -16.152  0.00  0.00    -0.240 NA
ATOM     10  C   UNL d   1      11.012   1.489 -16.877  0.00  0.00     0.255 C 
ATOM     11  O   UNL d   1      12.168   1.920 -16.829  0.00  0.00    -0.270 OA
BRANCH  10  12
ATOM     12  C   UNL d   1      10.632   0.309 -17.793  0.00  0.00     0.127 C 
ATOM     13  C   UNL d   1       9.800  -0.734 -17.026  0.00  0.00     0.015 C 
ATOM     14  C   UNL d   1      10.136   0.833 -19.153  0.00  0.00     0.154 C 
ATOM     15  O   UNL d   1      11.466   0.716 -19.713  0.00  0.00    -0.353 OA
ATOM     16  C   UNL d   1      11.809  -0.189 -18.638  0.00  0.00     0.154 C 
ENDBRANCH  10  12
ENDBRANCH   6   9
ENDBRANCH   2   3
ENDBRANCH   1   2
BRANCH   1  17
ATOM     17  N   UNL d   1       9.184   6.138  -9.294  0.00  0.00     0.137 N 
ATOM     18  C   UNL d   1       8.620   5.693  -8.019  0.00  0.00     0.251 C 
ATOM     19  C   UNL d   1       8.969   6.691  -6.897  0.00  0.00     0.040 C 
ATOM     20  C   UNL d   1      10.489   6.878  -6.758  0.00  0.00     0.028 C 
ATOM     21  C   UNL d   1      11.073   7.214  -8.126  0.00  0.00     0.040 C 
ATOM     22  C   UNL d   1      10.637   6.184  -9.155  0.00  0.00     0.251 C 
BRANCH  20  23
ATOM     23  C   UNL d   1      10.854   7.931  -5.734  0.00  0.00     0.002 A 
ATOM     24  C   UNL d   1      11.486   7.607  -4.520  0.00  0.00     0.115 A 
ATOM     25  C   UNL d   1      11.810   8.568  -3.587  0.00  0.00     0.119 A 
ATOM     26  O   UNL d   1      11.859   6.388  -4.054  0.00  0.00    -0.300 OA
ATOM     27  C   UNL d   1      11.492   9.914  -3.791  0.00  0.00     0.026 A 
ATOM     28  O   UNL d   1      12.388   7.985  -2.506  0.00  0.00    -0.300 OA
ATOM     29  C   UNL d   1      10.889  10.270  -5.015  0.00  0.00     0.002 A 
ATOM     30  C   UNL d   1      10.569   9.288  -5.976  0.00  0.00    -0.002 A 
ATOM     31  C   UNL d   1      12.421   6.616  -2.788  0.00  0.00     0.304 A 
ENDBRANCH  20  23
ENDBRANCH   1  17
TORSDOF 6
