REMARK  4 active torsions:
REMARK  status: ('A' for Active; 'I' for Inactive)
REMARK    1  A    between atoms: C_8  and  C_9 
REMARK    2  A    between atoms: C_9  and  C_10 
REMARK    3  A    between atoms: C_10  and  N_11 
REMARK    4  A    between atoms: C_14  and  C_15 
ROOT
ATOM      1  N   UNL d   1       8.777   3.207 -13.264  0.00  0.00     0.137 N 
ATOM      2  C   UNL d   1       7.841   3.639 -14.262  0.00  0.00     0.251 C 
ATOM      3  C   UNL d   1       7.255   2.419 -14.999  0.00  0.00     0.041 C 
ATOM      4  C   UNL d   1       8.337   1.571 -15.700  0.00  0.00     0.047 C 
ATOM      5  C   UNL d   1       9.336   1.193 -14.612  0.00  0.00     0.041 C 
ATOM      6  C   UNL d   1       9.846   2.459 -13.885  0.00  0.00     0.251 C 
ENDROOT
BRANCH   1   7
ATOM      7  C   UNL d   1       9.383   4.314 -12.556  0.00  0.00     0.255 C 
BRANCH   7   8
ATOM      8  C   UNL d   1       8.357   5.045 -11.685  0.00  0.00     0.068 C 
BRANCH   8   9
ATOM      9  C   UNL d   1       9.021   6.034 -10.729  0.00  0.00     0.050 A 
ATOM     10  C   UNL d   1       9.454   7.250 -11.124  0.00  0.00     0.061 A 
ATOM     11  C   UNL d   1       9.329   7.731 -12.535  0.00  0.00     0.052 C 
ATOM     12  N   UNL d   1      10.081   8.148 -10.264  0.00  0.00    -0.234 NA
ATOM     13  C   UNL d   1      10.184   7.827  -9.024  0.00  0.00     0.153 A 
ATOM     14  C   UNL d   1      10.879   8.779  -8.055  0.00  0.00     0.208 C 
ATOM     15  N   UNL d   1       9.707   6.599  -8.513  0.00  0.00    -0.283 N 
ATOM     16  C   UNL d   1      10.636   8.534  -6.565  0.00  0.00     0.043 C 
ATOM     17  O   UNL d   1      12.267   8.764  -8.314  0.00  0.00    -0.215 OA
ATOM     18  C   UNL d   1      10.815   7.062  -6.265  0.00  0.00     0.028 C 
ATOM     19  C   UNL d   1       9.773   6.302  -7.084  0.00  0.00     0.111 C 
ATOM     20  C   UNL d   1       9.123   5.662  -9.318  0.00  0.00     0.259 A 
ATOM     21  O   UNL d   1       8.710   4.585  -8.882  0.00  0.00    -0.267 OA
ENDBRANCH   8   9
ENDBRANCH   7   8
ENDBRANCH   1   7
BRANCH   4  22
ATOM     22  C   UNL d   1       8.997   2.272 -16.884  0.00  0.00     0.087 A 
ATOM     23  C   UNL d   1      10.324   2.738 -17.122  0.00  0.00     0.041 A 
ATOM     24  C   UNL d   1      10.355   3.443 -18.336  0.00  0.00     0.129 A 
ATOM     25  C   UNL d   1      11.508   2.638 -16.355  0.00  0.00     0.006 A 
ATOM     26  O   UNL d   1       9.072   3.335 -18.850  0.00  0.00    -0.211 OA
ATOM     27  C   UNL d   1      11.521   4.080 -18.830  0.00  0.00     0.057 A 
ATOM     28  N   UNL d   1       8.265   2.584 -17.950  0.00  0.00    -0.131 NA
ATOM     29  C   UNL d   1      12.688   4.031 -18.027  0.00  0.00     0.142 A 
ATOM     30  F   UNL d   1      13.845   4.614 -18.442  0.00  0.00    -0.204 F 
ATOM     31  C   UNL d   1      12.651   3.339 -16.799  0.00  0.00     0.030 A 
ENDBRANCH   4  22
TORSDOF 4
