REMARK  15 active torsions:
REMARK  status: ('A' for Active; 'I' for Inactive)
REMARK    1  A    between atoms: C_2  and  O_3 
REMARK    2  A    between atoms: O_3  and  C_4 
REMARK    3  A    between atoms: C_7  and  C_8 
REMARK    4  A    between atoms: C_8  and  C_9 
REMARK    5  A    between atoms: C_9  and  N_10 
REMARK    6  A    between atoms: N_10  and  C_11 
REMARK    7  A    between atoms: C_11  and  C_12 
REMARK    8  A    between atoms: C_12  and  C_13 
REMARK    9  A    between atoms: C_13  and  S_14 
REMARK   10  A    between atoms: S_14  and  C_15 
REMARK   11  A    between atoms: C_15  and  C_16 
REMARK   12  A    between atoms: C_16  and  N_17 
REMARK   13  A    between atoms: N_17  and  C_18 
REMARK   14  A    between atoms: C_18  and  C_19 
REMARK   15  A    between atoms: C_19  and  C_21 
ROOT
ATOM      1  C   UNL d   1       7.654   3.416 -14.273  0.00  0.00     0.083 C 
ENDROOT
BRANCH   1   2
ATOM      2  S   UNL d   1       6.562   4.258 -13.089  0.00  0.00    -0.138 SA
BRANCH   2   3
ATOM      3  C   UNL d   1       7.763   4.397 -11.748  0.00  0.00     0.060 C 
BRANCH   3   4
ATOM      4  C   UNL d   1       8.410   5.775 -11.812  0.00  0.00     0.050 C 
BRANCH   4   5
ATOM      5  C   UNL d   1       9.193   6.113 -10.556  0.00  0.00     0.291 C 
BRANCH   5   6
ATOM      6  N   UNL d   1       9.800   7.406 -10.736  0.00  0.00     0.339 N 
BRANCH   6   7
ATOM      7  C   UNL d   1      10.632   7.742  -9.568  0.00  0.00     0.295 C 
BRANCH   7   8
ATOM      8  C   UNL d   1       9.716   8.143  -8.401  0.00  0.00     0.065 C 
BRANCH   8   9
ATOM      9  C   UNL d   1      10.487   8.267  -7.098  0.00  0.00    -0.020 A 
ATOM     10  C   UNL d   1      11.250   9.413  -6.805  0.00  0.00    -0.002 A 
ATOM     11  C   UNL d   1      11.916   9.512  -5.563  0.00  0.00     0.024 A 
ATOM     12  C   UNL d   1      11.775   8.473  -4.594  0.00  0.00     0.094 A 
ATOM     13  C   UNL d   1      10.978   7.377  -4.904  0.00  0.00     0.024 A 
ATOM     14  C   UNL d   1      10.378   7.232  -6.142  0.00  0.00    -0.002 A 
BRANCH  12  15
ATOM     15  O   UNL d   1      12.455   8.678  -3.405  0.00  0.00    -0.331 OA
BRANCH  15  16
ATOM     16  C   UNL d   1      12.137   7.826  -2.303  0.00  0.00     0.149 C 
ATOM     17  C   UNL d   1      12.530   6.338  -2.514  0.00  0.00     0.035 C 
ENDBRANCH  15  16
ENDBRANCH  12  15
ENDBRANCH   8   9
ENDBRANCH   7   8
ENDBRANCH   6   7
ENDBRANCH   5   6
ENDBRANCH   4   5
ENDBRANCH   3   4
ENDBRANCH   2   3
ENDBRANCH   1   2
BRANCH   1  18
ATOM     18  C   UNL d   1       8.869   4.221 -14.771  0.00  0.00     0.132 C 
BRANCH  18  19
ATOM     19  N   UNL d   1       9.478   3.640 -15.987  0.00  0.00    -0.292 NA
BRANCH  19  20
ATOM     20  C   UNL d   1      10.390   2.505 -15.764  0.00  0.00     0.157 C 
BRANCH  20  21
ATOM     21  C   UNL d   1       9.721   1.278 -15.055  0.00  0.00     0.199 C 
ATOM     22  O   UNL d   1      10.695   0.282 -14.877  0.00  0.00    -0.216 OA
BRANCH  21  23
ATOM     23  C   UNL d   1       8.500   0.727 -15.833  0.00  0.00     0.018 A 
ATOM     24  C   UNL d   1       8.664   0.207 -17.134  0.00  0.00     0.052 A 
ATOM     25  C   UNL d   1       7.553  -0.245 -17.900  0.00  0.00     0.116 A 
ATOM     26  S   UNL d   1      10.163  -0.034 -18.020  0.00  0.00    -0.024 SA
ATOM     27  C   UNL d   1       6.253  -0.162 -17.360  0.00  0.00     0.149 A 
ATOM     28  N   UNL d   1       7.939  -0.792 -19.110  0.00  0.00    -0.200 NA
ATOM     29  C   UNL d   1       6.079   0.341 -16.082  0.00  0.00     0.029 A 
ATOM     30  O   UNL d   1       5.156  -0.613 -18.101  0.00  0.00    -0.189 OA
ATOM     31  C   UNL d   1       7.201   0.762 -15.299  0.00  0.00     0.001 A 
ATOM     32  C   UNL d   1       9.289  -0.791 -19.396  0.00  0.00     0.311 A 
ATOM     33  O   UNL d   1       9.854  -1.211 -20.398  0.00  0.00    -0.258 OA
ENDBRANCH  21  23
ENDBRANCH  20  21
ENDBRANCH  19  20
ENDBRANCH  18  19
ENDBRANCH   1  18
TORSDOF 15
