REMARK  7 active torsions:
REMARK  status: ('A' for Active; 'I' for Inactive)
REMARK    1  A    between atoms: C_7  and  N_8 
REMARK    2  A    between atoms: N_11  and  C_12 
REMARK    3  A    between atoms: C_12  and  C_13 
REMARK    4  A    between atoms: C_13  and  C_14 
REMARK    5  A    between atoms: C_14  and  C_15 
REMARK    6  A    between atoms: C_15  and  C_16 
REMARK    7  A    between atoms: C_18  and  C_19 
ROOT
ATOM      1  C   UNL d   1       8.852   5.043 -10.017  0.00  0.00     0.250 C 
ENDROOT
BRANCH   1   2
ATOM      2  N   UNL d   1       9.167   6.236  -9.238  0.00  0.00     0.141 N 
ATOM      3  C   UNL d   1       8.607   6.102  -7.886  0.00  0.00     0.274 C 
ATOM      4  C   UNL d   1       8.904   7.360  -7.040  0.00  0.00     0.137 C 
ATOM      5  N   UNL d   1      10.338   7.623  -7.010  0.00  0.00    -0.344 N 
ATOM      6  C   UNL d   1      10.973   7.633  -8.319  0.00  0.00     0.137 C 
ATOM      7  C   UNL d   1      10.618   6.380  -9.110  0.00  0.00     0.274 C 
BRANCH   5   8
ATOM      8  C   UNL d   1      11.064   7.819  -5.827  0.00  0.00     0.052 A 
ATOM      9  C   UNL d   1      11.861   8.972  -5.615  0.00  0.00    -0.006 A 
ATOM     10  C   UNL d   1      11.957  10.046  -6.667  0.00  0.00     0.033 C 
ATOM     11  C   UNL d   1      12.589   9.132  -4.415  0.00  0.00    -0.003 A 
ATOM     12  C   UNL d   1      12.530   8.149  -3.414  0.00  0.00    -0.000 A 
ATOM     13  C   UNL d   1      11.755   6.994  -3.624  0.00  0.00     0.002 A 
ATOM     14  C   UNL d   1      11.025   6.841  -4.817  0.00  0.00     0.017 A 
ENDBRANCH   5   8
ENDBRANCH   1   2
BRANCH   1  15
ATOM     15  C   UNL d   1       9.086   5.269 -11.525  0.00  0.00     0.036 C 
BRANCH  15  16
ATOM     16  C   UNL d   1       8.803   4.003 -12.335  0.00  0.00     0.009 C 
BRANCH  16  17
ATOM     17  C   UNL d   1       9.020   4.169 -13.845  0.00  0.00     0.054 C 
BRANCH  17  18
ATOM     18  C   UNL d   1       8.418   3.072 -14.660  0.00  0.00     0.104 A 
ATOM     19  O   UNL d   1       8.982   2.834 -15.868  0.00  0.00    -0.215 OA
ATOM     20  N   UNL d   1       8.252   1.825 -16.504  0.00  0.00    -0.127 NA
ATOM     21  C   UNL d   1       7.285   1.472 -15.666  0.00  0.00     0.110 A 
ATOM     22  C   UNL d   1       7.334   2.259 -14.480  0.00  0.00     0.044 A 
BRANCH  21  23
ATOM     23  C   UNL d   1       6.326   0.413 -16.023  0.00  0.00     0.020 A 
ATOM     24  C   UNL d   1       5.443  -0.100 -15.045  0.00  0.00     0.002 A 
ATOM     25  C   UNL d   1       4.517  -1.110 -15.372  0.00  0.00     0.000 A 
ATOM     26  C   UNL d   1       4.462  -1.619 -16.681  0.00  0.00     0.000 A 
ATOM     27  C   UNL d   1       5.332  -1.115 -17.666  0.00  0.00     0.000 A 
ATOM     28  C   UNL d   1       6.257  -0.104 -17.340  0.00  0.00     0.002 A 
ENDBRANCH  21  23
ENDBRANCH  17  18
ENDBRANCH  16  17
ENDBRANCH  15  16
ENDBRANCH   1  15
TORSDOF 7
