REMARK  11 active torsions:
REMARK  status: ('A' for Active; 'I' for Inactive)
REMARK    1  A    between atoms: C_2  and  O_3 
REMARK    2  A    between atoms: O_3  and  C_4 
REMARK    3  A    between atoms: C_10  and  C_11 
REMARK    4  A    between atoms: C_13  and  C_14 
REMARK    5  A    between atoms: C_14  and  N_15 
REMARK    6  A    between atoms: N_15  and  C_17 
REMARK    7  A    between atoms: C_17  and  C_18 
REMARK    8  A    between atoms: C_18  and  C_19 
REMARK    9  A    between atoms: C_19  and  S_20 
REMARK   10  A    between atoms: S_20  and  C_21 
REMARK   11  A    between atoms: C_24  and  C_25 
ROOT
ATOM      1  N   UNL d   1      10.239   4.368 -15.662  0.00  0.00     0.139 N 
ATOM      2  C   UNL d   1      11.503   4.872 -15.131  0.00  0.00     0.285 C 
ENDROOT
BRANCH   1   3
ATOM      3  C   UNL d   1      10.284   2.917 -15.816  0.00  0.00     0.251 C 
BRANCH   3   4
ATOM      4  C   UNL d   1      10.990   2.527 -17.099  0.00  0.00     0.038 A 
ATOM      5  C   UNL d   1      10.957   1.080 -17.560  0.00  0.00     0.026 A 
ATOM      6  C   UNL d   1      12.238   1.684 -17.041  0.00  0.00     0.007 A 
BRANCH   5   7
ATOM      7  C   UNL d   1      10.805   0.718 -19.000  0.00  0.00     0.002 A 
ATOM      8  C   UNL d   1      11.748  -0.131 -19.640  0.00  0.00     0.090 A 
ATOM      9  C   UNL d   1      11.607  -0.404 -21.022  0.00  0.00     0.026 A 
ATOM     10  C   UNL d   1      10.534   0.131 -21.746  0.00  0.00     0.032 A 
ATOM     11  C   UNL d   1       9.584   0.947 -21.117  0.00  0.00     0.140 A 
ATOM     12  F   UNL d   1       8.550   1.472 -21.822  0.00  0.00    -0.204 F 
ATOM     13  C   UNL d   1       9.717   1.251 -19.749  0.00  0.00     0.027 A 
BRANCH   8  14
ATOM     14  O   UNL d   1      12.745  -0.672 -18.853  0.00  0.00    -0.331 OA
BRANCH  14  15
ATOM     15  C   UNL d   1      13.819  -1.390 -19.457  0.00  0.00     0.149 C 
ATOM     16  C   UNL d   1      14.869  -0.424 -20.030  0.00  0.00     0.035 C 
ENDBRANCH  14  15
ENDBRANCH   8  14
ENDBRANCH   5   7
ENDBRANCH   3   4
ENDBRANCH   1   3
BRANCH   1  17
ATOM     17  C   UNL d   1       9.091   4.777 -14.859  0.00  0.00     0.251 C 
BRANCH  17  18
ATOM     18  C   UNL d   1       9.331   4.853 -13.341  0.00  0.00     0.047 C 
BRANCH  18  19
ATOM     19  C   UNL d   1       8.241   5.663 -12.626  0.00  0.00     0.067 C 
BRANCH  19  20
ATOM     20  S   UNL d   1       8.171   5.198 -10.883  0.00  0.00    -0.075 SA
BRANCH  20  21
ATOM     21  C   UNL d   1       9.216   6.401 -10.121  0.00  0.00     0.193 A 
ATOM     22  N   UNL d   1       9.383   6.452  -8.786  0.00  0.00    -0.289 N 
ATOM     23  C   UNL d   1      10.259   7.468  -8.631  0.00  0.00     0.167 A 
ATOM     24  C   UNL d   1       8.743   5.593  -7.802  0.00  0.00     0.134 C 
ATOM     25  N   UNL d   1      10.590   8.035  -9.799  0.00  0.00    -0.128 NA
ATOM     26  N   UNL d   1       9.899   7.342 -10.766  0.00  0.00    -0.122 NA
BRANCH  23  27
ATOM     27  C   UNL d   1      10.812   7.946  -7.359  0.00  0.00     0.036 A 
ATOM     28  C   UNL d   1      11.000   7.087  -6.250  0.00  0.00     0.003 A 
ATOM     29  C   UNL d   1      11.466   7.590  -5.025  0.00  0.00     0.000 A 
ATOM     30  C   UNL d   1      11.822   8.947  -4.901  0.00  0.00     0.000 A 
ATOM     31  C   UNL d   1      11.682   9.807  -6.012  0.00  0.00     0.000 A 
ATOM     32  C   UNL d   1      11.165   9.312  -7.223  0.00  0.00     0.003 A 
ENDBRANCH  23  27
ENDBRANCH  20  21
ENDBRANCH  19  20
ENDBRANCH  18  19
ENDBRANCH  17  18
ENDBRANCH   1  17
TORSDOF 11
