REMARK  5 active torsions:
REMARK  status: ('A' for Active; 'I' for Inactive)
REMARK    1  A    between atoms: C_4  and  C_5 
REMARK    2  A    between atoms: C_7  and  N_8 
REMARK    3  A    between atoms: N_20  and  S_21 
REMARK    4  A    between atoms: S_21  and  C_24 
REMARK    5  A    between atoms: C_24  and  C_25 
ROOT
ATOM      1  C   UNL d   1      10.549   2.009 -16.747  0.00  0.00     0.006 A 
ATOM      2  C   UNL d   1      11.127   3.254 -16.439  0.00  0.00     0.037 A 
ATOM      3  C   UNL d   1      12.376   3.629 -16.966  0.00  0.00     0.142 A 
ATOM      4  N   UNL d   1      13.049   2.841 -17.846  0.00  0.00    -0.211 NA
ATOM      5  C   UNL d   1      12.450   1.654 -18.191  0.00  0.00     0.158 A 
ATOM      6  C   UNL d   1      11.219   1.163 -17.675  0.00  0.00     0.037 A 
ATOM      7  C   UNL d   1      11.002  -0.138 -18.289  0.00  0.00     0.023 A 
ATOM      8  C   UNL d   1      12.057  -0.341 -19.143  0.00  0.00     0.093 A 
ATOM      9  N   UNL d   1      12.946   0.739 -19.079  0.00  0.00    -0.218 N 
ENDROOT
BRANCH   1  10
ATOM     10  C   UNL d   1       9.247   1.649 -16.107  0.00  0.00     0.002 A 
ATOM     11  C   UNL d   1       8.312   0.824 -16.833  0.00  0.00     0.002 A 
ATOM     12  C   UNL d   1       7.186   0.509 -16.126  0.00  0.00     0.007 A 
ATOM     13  C   UNL d   1       6.064  -0.376 -16.569  0.00  0.00     0.038 C 
ATOM     14  S   UNL d   1       7.184   1.306 -14.580  0.00  0.00    -0.096 SA
ATOM     15  C   UNL d   1       8.748   2.027 -14.869  0.00  0.00     0.007 A 
ATOM     16  C   UNL d   1       9.326   2.916 -13.787  0.00  0.00     0.038 C 
ENDBRANCH   1  10
BRANCH   3  17
ATOM     17  N   UNL d   1      12.997   4.841 -16.607  0.00  0.00    -0.330 N 
ATOM     18  C   UNL d   1      12.303   5.904 -15.871  0.00  0.00     0.138 C 
ATOM     19  C   UNL d   1      12.428   7.230 -16.623  0.00  0.00     0.274 C 
ATOM     20  N   UNL d   1      13.837   7.561 -16.840  0.00  0.00     0.143 N 
ATOM     21  C   UNL d   1      14.443   6.516 -17.668  0.00  0.00     0.274 C 
ATOM     22  C   UNL d   1      13.907   8.831 -17.542  0.00  0.00     0.286 C 
ATOM     23  C   UNL d   1      14.385   5.165 -16.937  0.00  0.00     0.138 C 
ENDBRANCH   3  17
BRANCH   9  24
ATOM     24  S   UNL d   1      14.426   0.832 -19.950  0.00  0.00     0.252 S 
ATOM     25  O   UNL d   1      15.024   2.163 -19.705  0.00  0.00    -0.204 OA
ATOM     26  O   UNL d   1      15.135  -0.399 -19.601  0.00  0.00    -0.204 OA
BRANCH  24  27
ATOM     27  C   UNL d   1      13.786   0.764 -21.667  0.00  0.00     0.145 C 
BRANCH  27  28
ATOM     28  C   UNL d   1      14.640  -0.102 -22.616  0.00  0.00     0.018 C 
ATOM     29  C   UNL d   1      14.658  -1.607 -22.253  0.00  0.00     0.001 C 
ATOM     30  C   UNL d   1      16.056   0.485 -22.757  0.00  0.00     0.001 C 
ENDBRANCH  27  28
ENDBRANCH  24  27
ENDBRANCH   9  24
TORSDOF 5
