REMARK  9 active torsions:
REMARK  status: ('A' for Active; 'I' for Inactive)
REMARK    1  A    between atoms: O_2  and  C_3 
REMARK    2  A    between atoms: C_9  and  C_10 
REMARK    3  A    between atoms: C_12  and  C_13 
REMARK    4  A    between atoms: C_13  and  N_14 
REMARK    5  A    between atoms: N_14  and  C_15 
REMARK    6  A    between atoms: C_15  and  C_16 
REMARK    7  A    between atoms: C_16  and  C_17 
REMARK    8  A    between atoms: C_17  and  O_18 
REMARK    9  A    between atoms: O_18  and  C_19 
ROOT
ATOM      1  C   UNL d   1       8.662   6.719 -11.193  0.00  0.00     0.293 C 
ENDROOT
BRANCH   1   2
ATOM      2  N   UNL d   1       8.203   5.585 -11.963  0.00  0.00     0.339 N 
BRANCH   2   3
ATOM      3  C   UNL d   1       6.756   5.580 -11.963  0.00  0.00     0.290 C 
BRANCH   3   4
ATOM      4  C   UNL d   1       6.278   4.604 -13.011  0.00  0.00     0.041 A 
ATOM      5  C   UNL d   1       6.055   3.146 -12.704  0.00  0.00     0.026 A 
ATOM      6  C   UNL d   1       4.892   4.059 -12.940  0.00  0.00     0.007 A 
BRANCH   5   7
ATOM      7  C   UNL d   1       6.396   2.084 -13.694  0.00  0.00     0.002 A 
ATOM      8  C   UNL d   1       7.591   2.159 -14.450  0.00  0.00     0.090 A 
ATOM      9  C   UNL d   1       7.869   1.142 -15.395  0.00  0.00     0.026 A 
ATOM     10  C   UNL d   1       6.975   0.071 -15.564  0.00  0.00     0.032 A 
ATOM     11  C   UNL d   1       5.809  -0.016 -14.786  0.00  0.00     0.140 A 
ATOM     12  F   UNL d   1       4.950  -1.045 -14.958  0.00  0.00    -0.204 F 
ATOM     13  C   UNL d   1       5.524   0.984 -13.843  0.00  0.00     0.027 A 
BRANCH   8  14
ATOM     14  O   UNL d   1       8.446   3.212 -14.205  0.00  0.00    -0.328 OA
ATOM     15  C   UNL d   1       9.544   3.424 -15.075  0.00  0.00     0.181 C 
ENDBRANCH   8  14
ENDBRANCH   5   7
ENDBRANCH   3   4
ENDBRANCH   2   3
ENDBRANCH   1   2
BRANCH   1  16
ATOM     16  C   UNL d   1      10.116   6.500 -10.847  0.00  0.00     0.071 C 
BRANCH  16  17
ATOM     17  C   UNL d   1      10.816   7.831 -10.376  0.00  0.00     0.151 C 
BRANCH  17  18
ATOM     18  O   UNL d   1      10.273   8.526  -9.248  0.00  0.00    -0.331 OA
BRANCH  18  19
ATOM     19  C   UNL d   1      10.653   8.089  -7.997  0.00  0.00     0.096 A 
ATOM     20  C   UNL d   1      10.713   9.027  -6.929  0.00  0.00     0.043 A 
ATOM     21  C   UNL d   1      11.138   8.588  -5.654  0.00  0.00     0.087 A 
ATOM     22  C   UNL d   1      11.450   7.243  -5.412  0.00  0.00     0.018 A 
ATOM     23  N   UNL d   1      11.354   9.488  -4.600  0.00  0.00    -0.208 NA
ATOM     24  C   UNL d   1      11.459   6.368  -6.495  0.00  0.00     0.004 A 
ATOM     25  C   UNL d   1      11.948   6.833  -4.117  0.00  0.00     0.006 A 
ATOM     26  C   UNL d   1      11.027   6.739  -7.764  0.00  0.00     0.024 A 
ATOM     27  C   UNL d   1      12.131   7.739  -3.150  0.00  0.00     0.063 A 
ATOM     28  C   UNL d   1      11.801   9.153  -3.367  0.00  0.00     0.279 A 
ATOM     29  O   UNL d   1      11.830   9.987  -2.495  0.00  0.00    -0.265 OA
ENDBRANCH  18  19
ENDBRANCH  17  18
ENDBRANCH  16  17
ENDBRANCH   1  16
TORSDOF 9
