REMARK  7 active torsions:
REMARK  status: ('A' for Active; 'I' for Inactive)
REMARK    1  A    between atoms: C_6  and  S_7 
REMARK    2  A    between atoms: S_7  and  N_10 
REMARK    3  A    between atoms: N_10  and  C_11 
REMARK    4  A    between atoms: C_11  and  C_12 
REMARK    5  A    between atoms: C_12  and  C_13 
REMARK    6  A    between atoms: C_13  and  N_14 
REMARK    7  A    between atoms: N_17  and  C_18 
ROOT
ATOM      1  N   UNL d   1       9.911   7.112  -9.072  0.00  0.00     0.141 N 
ATOM      2  C   UNL d   1      10.993   6.663  -8.236  0.00  0.00     0.274 C 
ATOM      3  C   UNL d   1      10.638   6.678  -6.787  0.00  0.00     0.138 C 
ATOM      4  N   UNL d   1      10.187   7.995  -6.425  0.00  0.00    -0.328 N 
ATOM      5  C   UNL d   1       9.159   8.540  -7.294  0.00  0.00     0.138 C 
ATOM      6  C   UNL d   1       9.605   8.490  -8.753  0.00  0.00     0.274 C 
ENDROOT
BRANCH   1   7
ATOM      7  C   UNL d   1      10.378   7.007 -10.435  0.00  0.00     0.253 C 
BRANCH   7   8
ATOM      8  C   UNL d   1       9.283   6.365 -11.259  0.00  0.00     0.062 C 
BRANCH   8   9
ATOM      9  C   UNL d   1       9.030   4.861 -10.985  0.00  0.00     0.141 C 
BRANCH   9  10
ATOM     10  N   UNL d   1       7.769   4.392 -11.571  0.00  0.00    -0.185 NA
BRANCH  10  11
ATOM     11  S   UNL d   1       7.466   4.550 -13.258  0.00  0.00     0.281 S 
ATOM     12  O   UNL d   1       7.907   5.877 -13.631  0.00  0.00    -0.199 OA
ATOM     13  O   UNL d   1       6.101   4.083 -13.514  0.00  0.00    -0.199 OA
BRANCH  11  14
ATOM     14  C   UNL d   1       8.626   3.426 -14.012  0.00  0.00     0.105 A 
ATOM     15  C   UNL d   1       8.223   2.119 -14.346  0.00  0.00     0.013 A 
ATOM     16  C   UNL d   1       9.159   1.234 -14.915  0.00  0.00     0.000 A 
ATOM     17  C   UNL d   1      10.470   1.677 -15.190  0.00  0.00    -0.004 A 
ATOM     18  C   UNL d   1      10.854   3.005 -14.906  0.00  0.00    -0.021 A 
ATOM     19  C   UNL d   1      12.254   3.490 -15.204  0.00  0.00     0.031 C 
ATOM     20  C   UNL d   1       9.924   3.884 -14.323  0.00  0.00     0.009 A 
ENDBRANCH  11  14
ENDBRANCH  10  11
ENDBRANCH   9  10
ENDBRANCH   8   9
ENDBRANCH   7   8
ENDBRANCH   1   7
BRANCH   4  21
ATOM     21  C   UNL d   1      10.806   8.713  -5.401  0.00  0.00     0.169 A 
ATOM     22  C   UNL d   1      11.483   8.170  -4.274  0.00  0.00     0.061 A 
ATOM     23  C   UNL d   1      11.768   9.227  -3.402  0.00  0.00     0.128 A 
ATOM     24  C   UNL d   1      11.709   6.841  -3.807  0.00  0.00     0.005 A 
ATOM     25  O   UNL d   1      11.226  10.350  -4.007  0.00  0.00    -0.210 OA
ATOM     26  C   UNL d   1      12.345   9.053  -2.144  0.00  0.00     0.027 A 
ATOM     27  N   UNL d   1      10.657  10.019  -5.258  0.00  0.00    -0.109 NA
ATOM     28  C   UNL d   1      12.648   7.744  -1.740  0.00  0.00     0.002 A 
ATOM     29  C   UNL d   1      12.338   6.647  -2.566  0.00  0.00     0.000 A 
ENDBRANCH   4  21
TORSDOF 7
