REMARK  5 active torsions:
REMARK  status: ('A' for Active; 'I' for Inactive)
REMARK    1  A    between atoms: C_4  and  C_5 
REMARK    2  A    between atoms: C_5  and  C_6 
REMARK    3  A    between atoms: C_6  and  N_7 
REMARK    4  A    between atoms: C_10  and  C_11 
REMARK    5  A    between atoms: C_13  and  C_14 
ROOT
ATOM      1  N   UNL d   1       9.412   7.399  -7.880  0.00  0.00     0.137 N 
ATOM      2  C   UNL d   1       8.978   6.018  -7.668  0.00  0.00     0.251 C 
ATOM      3  C   UNL d   1       8.377   5.434  -8.947  0.00  0.00     0.041 C 
ATOM      4  C   UNL d   1       9.375   5.529 -10.114  0.00  0.00     0.046 C 
ATOM      5  C   UNL d   1       9.863   6.976 -10.259  0.00  0.00     0.041 C 
ATOM      6  C   UNL d   1      10.414   7.509  -8.941  0.00  0.00     0.251 C 
ENDROOT
BRANCH   4   7
ATOM      7  C   UNL d   1       8.767   5.026 -11.399  0.00  0.00     0.082 A 
ATOM      8  N   UNL d   1       7.639   5.567 -11.838  0.00  0.00    -0.152 NA
ATOM      9  N   UNL d   1       7.350   4.892 -12.961  0.00  0.00    -0.148 NA
ATOM     10  C   UNL d   1       8.300   3.949 -13.263  0.00  0.00     0.110 A 
ATOM     11  C   UNL d   1       9.248   4.011 -12.283  0.00  0.00     0.038 A 
BRANCH  10  12
ATOM     12  C   UNL d   1       8.220   3.109 -14.430  0.00  0.00     0.049 A 
ATOM     13  S   UNL d   1       9.547   3.017 -15.559  0.00  0.00    -0.085 SA
ATOM     14  C   UNL d   1       8.647   1.931 -16.582  0.00  0.00     0.035 A 
ATOM     15  C   UNL d   1       7.409   1.654 -16.063  0.00  0.00     0.007 A 
ATOM     16  C   UNL d   1       7.161   2.335 -14.836  0.00  0.00     0.009 A 
ENDBRANCH  10  12
ENDBRANCH   4   7
BRANCH   1  17
ATOM     17  C   UNL d   1       9.862   7.993  -6.628  0.00  0.00     0.255 C 
BRANCH  17  18
ATOM     18  C   UNL d   1      11.204   7.410  -6.141  0.00  0.00     0.062 C 
BRANCH  18  19
ATOM     19  C   UNL d   1      11.551   7.848  -4.743  0.00  0.00    -0.020 A 
ATOM     20  C   UNL d   1      11.549   9.211  -4.401  0.00  0.00    -0.004 A 
ATOM     21  C   UNL d   1      11.887   9.592  -3.093  0.00  0.00    -0.000 A 
ATOM     22  C   UNL d   1      12.257   8.625  -2.139  0.00  0.00    -0.000 A 
ATOM     23  C   UNL d   1      12.256   7.260  -2.479  0.00  0.00    -0.000 A 
ATOM     24  C   UNL d   1      11.899   6.874  -3.783  0.00  0.00    -0.004 A 
ENDBRANCH  18  19
ENDBRANCH  17  18
ENDBRANCH   1  17
TORSDOF 5
