REMARK  1 active torsions:
REMARK  status: ('A' for Active; 'I' for Inactive)
REMARK    1  A    between atoms: C_6  and  N_7 
ROOT
ATOM      1 CL   UNL d   1      11.459  10.222  -3.228  0.00  0.00    -0.081 Cl
ATOM      2  C   UNL d   1      11.580   8.803  -4.090  0.00  0.00     0.070 A 
ATOM      3  C   UNL d   1      11.860   7.651  -3.352  0.00  0.00     0.012 A 
ATOM      4  C   UNL d   1      11.880   6.438  -4.029  0.00  0.00     0.002 A 
ATOM      5  C   UNL d   1      11.686   6.416  -5.422  0.00  0.00     0.018 A 
ATOM      6  C   UNL d   1      11.430   7.592  -6.171  0.00  0.00     0.068 A 
ATOM      7  C   UNL d   1      11.379   8.817  -5.469  0.00  0.00     0.084 A 
ATOM      8 CL   UNL d   1      11.075  10.341  -6.231  0.00  0.00    -0.080 Cl
ENDROOT
BRANCH   6   9
ATOM      9  N   UNL d   1      11.324   7.496  -7.570  0.00  0.00    -0.344 N 
ATOM     10  C   UNL d   1      12.121   8.317  -8.465  0.00  0.00     0.140 C 
ATOM     11  C   UNL d   1      11.191   9.090  -9.425  0.00  0.00     0.314 C 
ATOM     12  N   UNL d   1      10.294   8.172 -10.123  0.00  0.00     0.343 N 
ATOM     13  C   UNL d   1       9.465   7.463  -9.144  0.00  0.00     0.314 C 
ATOM     14  C   UNL d   1      10.329   6.630  -8.181  0.00  0.00     0.140 C 
ENDBRANCH   6   9
TORSDOF 1
