REMARK  9 active torsions:
REMARK  status: ('A' for Active; 'I' for Inactive)
REMARK    1  A    between atoms: C_3  and  S_4 
REMARK    2  A    between atoms: S_4  and  C_5 
REMARK    3  A    between atoms: C_5  and  C_6 
REMARK    4  A    between atoms: C_6  and  C_7 
REMARK    5  A    between atoms: C_7  and  N_8 
REMARK    6  A    between atoms: N_13  and  C_14 
REMARK    7  A    between atoms: C_17  and  O_18 
REMARK    8  A    between atoms: O_18  and  C_19 
REMARK    9  A    between atoms: C_29  and  C_30 
ROOT
ATOM      1  N   UNL d   1       7.278  -0.807 -18.355  0.00  0.00     0.138 N 
ATOM      2  C   UNL d   1       6.144  -1.576 -17.840  0.00  0.00     0.252 C 
ATOM      3  C   UNL d   1       5.426  -0.587 -16.909  0.00  0.00     0.052 C 
ATOM      4  C   UNL d   1       4.945  -1.153 -15.569  0.00  0.00     0.021 C 
ATOM      5  C   UNL d   1       5.323  -0.037 -14.589  0.00  0.00     0.077 C 
ATOM      6  N   UNL d   1       6.565   0.529 -15.084  0.00  0.00    -0.252 NA
ATOM      7  C   UNL d   1       6.497   0.442 -16.537  0.00  0.00     0.097 C 
ATOM      8  C   UNL d   1       7.761  -0.103 -17.180  0.00  0.00     0.266 C 
ENDROOT
BRANCH   1   9
ATOM      9  C   UNL d   1       8.304  -1.663 -18.941  0.00  0.00     0.251 C 
BRANCH   9  10
ATOM     10  C   UNL d   1       9.558  -0.865 -19.369  0.00  0.00     0.047 C 
BRANCH  10  11
ATOM     11  C   UNL d   1      10.667  -0.986 -18.314  0.00  0.00     0.067 C 
BRANCH  11  12
ATOM     12  S   UNL d   1      12.180  -0.103 -18.785  0.00  0.00    -0.075 SA
BRANCH  12  13
ATOM     13  C   UNL d   1      12.046   1.361 -17.823  0.00  0.00     0.193 A 
ATOM     14  N   UNL d   1      12.779   2.479 -18.080  0.00  0.00    -0.287 N 
ATOM     15  C   UNL d   1      13.756   2.668 -19.142  0.00  0.00     0.134 C 
ATOM     16  C   UNL d   1      12.356   3.329 -17.101  0.00  0.00     0.186 A 
ATOM     17  N   UNL d   1      11.465   2.754 -16.285  0.00  0.00    -0.127 NA
ATOM     18  N   UNL d   1      11.251   1.461 -16.758  0.00  0.00    -0.122 NA
BRANCH  16  19
ATOM     19  C   UNL d   1      12.788   4.705 -16.866  0.00  0.00     0.136 A 
ATOM     20  N   UNL d   1      11.879   5.537 -16.286  0.00  0.00    -0.238 NA
ATOM     21  C   UNL d   1      12.260   6.814 -16.040  0.00  0.00     0.120 A 
ATOM     22  C   UNL d   1      13.539   7.277 -16.397  0.00  0.00     0.120 A 
ATOM     23  N   UNL d   1      14.468   6.461 -16.946  0.00  0.00    -0.239 NA
ATOM     24  C   UNL d   1      14.092   5.169 -17.175  0.00  0.00     0.121 A 
ENDBRANCH  16  19
ENDBRANCH  12  13
ENDBRANCH  11  12
ENDBRANCH  10  11
ENDBRANCH   9  10
ENDBRANCH   1   9
BRANCH   6  25
ATOM     25  C   UNL d   1       7.039   1.737 -14.551  0.00  0.00     0.037 A 
ATOM     26  C   UNL d   1       6.263   2.509 -13.643  0.00  0.00     0.013 A 
ATOM     27  C   UNL d   1       6.700   3.750 -13.146  0.00  0.00     0.025 A 
ATOM     28  C   UNL d   1       7.957   4.263 -13.562  0.00  0.00     0.102 A 
ATOM     29  C   UNL d   1       8.753   3.482 -14.421  0.00  0.00     0.025 A 
ATOM     30  C   UNL d   1       8.318   2.243 -14.907  0.00  0.00     0.013 A 
BRANCH  28  31
ATOM     31  O   UNL d   1       8.415   5.522 -13.264  0.00  0.00    -0.253 OA
BRANCH  31  32
ATOM     32  C   UNL d   1       7.885   6.255 -12.234  0.00  0.00     0.530 C 
ATOM     33  F   UNL d   1       8.356   5.830 -11.035  0.00  0.00    -0.144 F 
ATOM     34  F   UNL d   1       8.299   7.557 -12.383  0.00  0.00    -0.144 F 
ATOM     35  F   UNL d   1       6.517   6.223 -12.209  0.00  0.00    -0.144 F 
ENDBRANCH  31  32
ENDBRANCH  28  31
ENDBRANCH   6  25
TORSDOF 9
