REMARK  3 active torsions:
REMARK  status: ('A' for Active; 'I' for Inactive)
REMARK    1  A    between atoms: C_2  and  C_3 
REMARK    2  A    between atoms: N_13  and  C_14 
REMARK    3  A    between atoms: C_14  and  C_15 
ROOT
ATOM      1  O   UNL d   1      10.212   4.877  -9.214  0.00  0.00    -0.222 OA
ATOM      2  C   UNL d   1       9.161   5.707  -9.621  0.00  0.00     0.147 C 
ATOM      3  C   UNL d   1       8.293   5.593  -8.347  0.00  0.00     0.037 C 
ATOM      4  C   UNL d   1       8.487   6.678  -7.290  0.00  0.00     0.038 C 
ATOM      5  C   UNL d   1       9.933   6.956  -6.939  0.00  0.00     0.251 C 
ATOM      6  N   UNL d   1      10.420   8.080  -7.754  0.00  0.00     0.141 N 
ATOM      7  C   UNL d   1      10.832   7.647  -9.084  0.00  0.00     0.254 C 
ATOM      8  C   UNL d   1       9.688   7.126  -9.942  0.00  0.00     0.070 C 
ENDROOT
BRANCH   6   9
ATOM      9  C   UNL d   1      11.609   8.606  -7.121  0.00  0.00     0.278 C 
BRANCH   9  10
ATOM     10  C   UNL d   1      11.476   9.082  -5.708  0.00  0.00     0.032 C 
ATOM     11  C   UNL d   1      11.760   8.332  -4.517  0.00  0.00     0.017 A 
ATOM     12  C   UNL d   1      11.588   9.204  -3.410  0.00  0.00     0.081 A 
ATOM     13  C   UNL d   1      12.190   7.020  -4.238  0.00  0.00     0.001 A 
ATOM     14  N   UNL d   1      11.057  10.361  -3.920  0.00  0.00    -0.244 NA
ATOM     15  C   UNL d   1      11.979   8.843  -2.115  0.00  0.00     0.019 A 
ATOM     16  C   UNL d   1      11.041  10.320  -5.300  0.00  0.00     0.097 C 
ATOM     17  C   UNL d   1      12.460   7.547  -1.882  0.00  0.00     0.002 A 
ATOM     18  C   UNL d   1      12.536   6.634  -2.942  0.00  0.00     0.000 A 
ENDBRANCH   9  10
ENDBRANCH   6   9
BRANCH   2  19
ATOM     19  C   UNL d   1       8.498   5.158 -10.925  0.00  0.00     0.005 A 
ATOM     20  C   UNL d   1       9.227   4.307 -11.791  0.00  0.00    -0.001 A 
ATOM     21  C   UNL d   1       8.597   3.701 -12.925  0.00  0.00     0.011 A 
ATOM     22  C   UNL d   1       7.244   3.945 -13.224  0.00  0.00     0.058 A 
ATOM     23  C   UNL d   1       6.540   4.859 -12.421  0.00  0.00     0.011 A 
ATOM     24 CL   UNL d   1       6.448   2.944 -14.421  0.00  0.00    -0.082 Cl
ATOM     25  C   UNL d   1       7.172   5.485 -11.292  0.00  0.00    -0.001 A 
ENDBRANCH   2  19
TORSDOF 3
