REMARK  8 active torsions:
REMARK  status: ('A' for Active; 'I' for Inactive)
REMARK    1  A    between atoms: C_3  and  S_4 
REMARK    2  A    between atoms: S_4  and  C_5 
REMARK    3  A    between atoms: C_5  and  C_6 
REMARK    4  A    between atoms: C_6  and  C_7 
REMARK    5  A    between atoms: C_7  and  N_8 
REMARK    6  A    between atoms: C_13  and  C_14 
REMARK    7  A    between atoms: C_17  and  C_18 
REMARK    8  A    between atoms: C_27  and  C_28 
ROOT
ATOM      1  N   UNL d   1       9.149   5.505 -10.097  0.00  0.00     0.137 N 
ATOM      2  C   UNL d   1       8.130   5.620  -9.069  0.00  0.00     0.250 C 
ATOM      3  C   UNL d   1       8.656   6.665  -8.133  0.00  0.00     0.038 C 
ATOM      4  C   UNL d   1       9.574   7.528  -8.966  0.00  0.00     0.037 A 
ATOM      5  C   UNL d   1       9.657   9.040  -8.806  0.00  0.00     0.007 A 
ATOM      6  C   UNL d   1      10.827   8.184  -8.419  0.00  0.00     0.024 A 
ATOM      7  C   UNL d   1       9.492   6.905 -10.337  0.00  0.00     0.251 C 
ENDROOT
BRANCH   1   8
ATOM      8  C   UNL d   1       8.584   4.885 -11.293  0.00  0.00     0.251 C 
BRANCH   8   9
ATOM      9  C   UNL d   1       9.723   4.414 -12.209  0.00  0.00     0.047 C 
BRANCH   9  10
ATOM     10  C   UNL d   1       9.232   3.966 -13.578  0.00  0.00     0.067 C 
BRANCH  10  11
ATOM     11  S   UNL d   1      10.510   3.040 -14.486  0.00  0.00    -0.075 SA
BRANCH  11  12
ATOM     12  C   UNL d   1       9.522   2.519 -15.855  0.00  0.00     0.193 A 
ATOM     13  N   UNL d   1       8.510   1.631 -15.749  0.00  0.00    -0.287 N 
ATOM     14  C   UNL d   1       8.052   0.952 -14.533  0.00  0.00     0.134 C 
ATOM     15  C   UNL d   1       8.028   1.580 -17.022  0.00  0.00     0.185 A 
ATOM     16  N   UNL d   1       8.724   2.379 -17.851  0.00  0.00    -0.127 NA
ATOM     17  N   UNL d   1       9.704   2.981 -17.095  0.00  0.00    -0.122 NA
BRANCH  15  18
ATOM     18  C   UNL d   1       6.902   0.750 -17.523  0.00  0.00     0.120 A 
ATOM     19  N   UNL d   1       6.282   1.179 -18.654  0.00  0.00    -0.221 NA
ATOM     20  C   UNL d   1       5.287   0.419 -19.131  0.00  0.00     0.199 A 
ATOM     21  N   UNL d   1       4.807  -0.697 -18.598  0.00  0.00    -0.223 NA
ATOM     22  C   UNL d   1       5.399  -1.134 -17.475  0.00  0.00     0.102 A 
ATOM     23  C   UNL d   1       6.479  -0.434 -16.904  0.00  0.00     0.043 A 
ENDBRANCH  15  18
ENDBRANCH  11  12
ENDBRANCH  10  11
ENDBRANCH   9  10
ENDBRANCH   8   9
ENDBRANCH   1   8
BRANCH   6  24
ATOM     24  C   UNL d   1      11.216   8.019  -6.989  0.00  0.00    -0.022 A 
ATOM     25  C   UNL d   1      11.306   9.147  -6.152  0.00  0.00    -0.004 A 
ATOM     26  C   UNL d   1      11.617   8.995  -4.790  0.00  0.00     0.004 A 
ATOM     27  C   UNL d   1      11.859   7.715  -4.242  0.00  0.00     0.071 A 
ATOM     28  C   UNL d   1      11.753   6.585  -5.089  0.00  0.00     0.004 A 
ATOM     29  C   UNL d   1      11.461   6.742  -6.452  0.00  0.00    -0.004 A 
BRANCH  27  30
ATOM     30  C   UNL d   1      12.237   7.534  -2.785  0.00  0.00     0.419 C 
ATOM     31  F   UNL d   1      11.174   7.274  -2.035  0.00  0.00    -0.166 F 
ATOM     32  F   UNL d   1      13.050   6.491  -2.650  0.00  0.00    -0.166 F 
ATOM     33  F   UNL d   1      12.852   8.620  -2.313  0.00  0.00    -0.166 F 
ENDBRANCH  27  30
ENDBRANCH   6  24
TORSDOF 8
