REMARK  6 active torsions:
REMARK  status: ('A' for Active; 'I' for Inactive)
REMARK    1  A    between atoms: O_2  and  C_3 
REMARK    2  A    between atoms: C_8  and  N_9 
REMARK    3  A    between atoms: N_12  and  C_13 
REMARK    4  A    between atoms: C_13  and  C_14 
REMARK    5  A    between atoms: C_14  and  C_15 
REMARK    6  A    between atoms: C_21  and  N_22 
ROOT
ATOM      1  C   UNL d   1       7.664   2.304 -14.306  0.00  0.00     0.251 C 
ENDROOT
BRANCH   1   2
ATOM      2  N   UNL d   1       7.558   3.715 -13.925  0.00  0.00     0.141 N 
ATOM      3  C   UNL d   1       8.902   4.303 -14.002  0.00  0.00     0.274 C 
ATOM      4  C   UNL d   1       8.877   5.777 -13.576  0.00  0.00     0.137 C 
ATOM      5  N   UNL d   1       8.288   5.921 -12.265  0.00  0.00    -0.343 N 
ATOM      6  C   UNL d   1       6.973   5.322 -12.105  0.00  0.00     0.137 C 
ATOM      7  C   UNL d   1       7.051   3.866 -12.553  0.00  0.00     0.274 C 
BRANCH   5   8
ATOM      8  C   UNL d   1       8.966   6.584 -11.217  0.00  0.00     0.079 A 
ATOM      9  C   UNL d   1       9.085   5.997  -9.933  0.00  0.00     0.110 A 
ATOM     10  C   UNL d   1       9.730   6.724  -8.889  0.00  0.00     0.026 A 
ATOM     11  C   UNL d   1      10.273   7.992  -9.135  0.00  0.00     0.002 A 
ATOM     12  C   UNL d   1      10.173   8.553 -10.412  0.00  0.00     0.002 A 
ATOM     13  C   UNL d   1       9.495   7.867 -11.449  0.00  0.00     0.019 A 
BRANCH   9  14
ATOM     14  O   UNL d   1       8.583   4.731  -9.758  0.00  0.00    -0.327 OA
ATOM     15  C   UNL d   1       8.462   4.236  -8.441  0.00  0.00     0.181 C 
ENDBRANCH   9  14
ENDBRANCH   5   8
ENDBRANCH   1   2
BRANCH   1  16
ATOM     16  C   UNL d   1       6.269   1.653 -14.389  0.00  0.00     0.043 C 
BRANCH  16  17
ATOM     17  C   UNL d   1       6.175   0.406 -15.304  0.00  0.00     0.064 C 
ATOM     18  C   UNL d   1       6.275   0.714 -16.819  0.00  0.00     0.172 C 
ATOM     19  C   UNL d   1       5.737  -0.310 -17.752  0.00  0.00     0.032 A 
ATOM     20  O   UNL d   1       6.784   1.765 -17.219  0.00  0.00    -0.291 OA
ATOM     21  C   UNL d   1       5.050  -1.457 -17.299  0.00  0.00    -0.019 A 
ATOM     22  C   UNL d   1       5.914  -0.106 -19.145  0.00  0.00     0.026 A 
ATOM     23  C   UNL d   1       4.820  -1.700 -15.818  0.00  0.00     0.027 C 
ATOM     24  C   UNL d   1       4.574  -2.399 -18.222  0.00  0.00    -0.003 A 
ATOM     25  C   UNL d   1       4.886  -0.400 -15.004  0.00  0.00     0.012 C 
ATOM     26  C   UNL d   1       4.779  -2.188 -19.609  0.00  0.00     0.023 A 
ATOM     27  C   UNL d   1       5.443  -1.038 -20.097  0.00  0.00     0.127 A 
BRANCH  27  28
ATOM     28  N   UNL d   1       5.666  -0.808 -21.553  0.00  0.00    -0.114 N 
ATOM     29  O   UNL d   1       5.831  -1.785 -22.282  0.00  0.00    -0.532 OA
ATOM     30  O   UNL d   1       5.701   0.351 -21.973  0.00  0.00    -0.532 OA
ENDBRANCH  27  28
ENDBRANCH  16  17
ENDBRANCH   1  16
TORSDOF 6
