REMARK  9 active torsions:
REMARK  status: ('A' for Active; 'I' for Inactive)
REMARK    1  A    between atoms: C_5  and  O_6 
REMARK    2  A    between atoms: O_6  and  C_7 
REMARK    3  A    between atoms: C_7  and  C_8 
REMARK    4  A    between atoms: C_8  and  C_9 
REMARK    5  A    between atoms: C_9  and  N_10 
REMARK    6  A    between atoms: N_10  and  C_11 
REMARK    7  A    between atoms: C_11  and  C_12 
REMARK    8  A    between atoms: C_12  and  O_13 
REMARK    9  A    between atoms: O_13  and  C_14 
ROOT
ATOM      1  C   UNL d   1       9.681   5.559  -8.912  0.00  0.00     0.293 C 
ENDROOT
BRANCH   1   2
ATOM      2  C   UNL d   1       9.747   6.577  -7.770  0.00  0.00     0.071 C 
BRANCH   2   3
ATOM      3  C   UNL d   1      10.735   7.730  -8.084  0.00  0.00     0.151 C 
BRANCH   3   4
ATOM      4  O   UNL d   1      10.589   8.839  -7.208  0.00  0.00    -0.331 OA
BRANCH   4   5
ATOM      5  C   UNL d   1      11.013   8.720  -5.907  0.00  0.00     0.094 A 
ATOM      6  C   UNL d   1      11.011   9.902  -5.133  0.00  0.00     0.024 A 
ATOM      7  C   UNL d   1      11.462   9.885  -3.800  0.00  0.00    -0.002 A 
ATOM      8  C   UNL d   1      11.899   8.683  -3.228  0.00  0.00    -0.022 A 
ATOM      9  C   UNL d   1      12.401   8.673  -1.803  0.00  0.00     0.031 C 
ATOM     10  C   UNL d   1      11.894   7.498  -3.982  0.00  0.00    -0.002 A 
ATOM     11  C   UNL d   1      11.463   7.513  -5.327  0.00  0.00     0.024 A 
ENDBRANCH   4   5
ENDBRANCH   3   4
ENDBRANCH   2   3
ENDBRANCH   1   2
BRANCH   1  12
ATOM     12  N   UNL d   1       8.674   5.973  -9.862  0.00  0.00     0.342 N 
BRANCH  12  13
ATOM     13  C   UNL d   1       8.808   5.245 -11.101  0.00  0.00     0.323 C 
BRANCH  13  14
ATOM     14  C   UNL d   1       7.900   5.887 -12.157  0.00  0.00     0.187 C 
BRANCH  14  15
ATOM     15  O   UNL d   1       8.018   5.122 -13.354  0.00  0.00    -0.329 OA
BRANCH  15  16
ATOM     16  C   UNL d   1       7.301   3.949 -13.447  0.00  0.00     0.094 A 
ATOM     17  C   UNL d   1       7.761   2.936 -14.333  0.00  0.00     0.024 A 
ATOM     18  C   UNL d   1       7.066   1.714 -14.461  0.00  0.00     0.002 A 
ATOM     19  C   UNL d   1       5.901   1.489 -13.707  0.00  0.00     0.000 A 
ATOM     20  C   UNL d   1       5.429   2.498 -12.840  0.00  0.00     0.002 A 
ATOM     21  C   UNL d   1       6.114   3.723 -12.715  0.00  0.00     0.024 A 
ENDBRANCH  15  16
ENDBRANCH  14  15
ENDBRANCH  13  14
ENDBRANCH  12  13
ENDBRANCH   1  12
TORSDOF 9
