REMARK  7 active torsions:
REMARK  status: ('A' for Active; 'I' for Inactive)
REMARK       I    between atoms: C_2  and  N_3 
REMARK    1  A    between atoms: C_2  and  C_27 
REMARK    2  A    between atoms: N_3  and  C_4 
REMARK    3  A    between atoms: C_7  and  C_8 
REMARK    4  A    between atoms: C_8  and  C_9 
REMARK    5  A    between atoms: C_9  and  N_10 
REMARK    6  A    between atoms: N_13  and  C_14 
REMARK    7  A    between atoms: C_30  and  C_31 
ROOT
ATOM      1  C   UNL d   1       9.160   4.747 -13.534  0.00  0.00     0.107 C 
ATOM      2  C   UNL d   1      10.372   4.854 -14.474  0.00  0.00     0.024 C 
ATOM      3  C   UNL d   1      10.064   4.255 -15.854  0.00  0.00     0.002 C 
ATOM      4  C   UNL d   1       9.594   2.792 -15.749  0.00  0.00     0.002 C 
ATOM      5  C   UNL d   1       8.392   2.681 -14.795  0.00  0.00     0.002 C 
ATOM      6  C   UNL d   1       8.700   3.284 -13.432  0.00  0.00     0.024 C 
ENDROOT
BRANCH   4   7
ATOM      7  C   UNL d   1       9.245   2.239 -17.138  0.00  0.00     0.035 C 
BRANCH   7   8
ATOM      8  C   UNL d   1       8.903   0.734 -17.132  0.00  0.00     0.250 C 
BRANCH   8   9
ATOM      9  N   UNL d   1       7.612   0.522 -17.778  0.00  0.00     0.141 N 
ATOM     10  C   UNL d   1       7.081  -0.779 -17.374  0.00  0.00     0.274 C 
ATOM     11  C   UNL d   1       5.726  -1.061 -18.030  0.00  0.00     0.138 C 
ATOM     12  N   UNL d   1       5.824  -0.917 -19.477  0.00  0.00    -0.330 N 
ATOM     13  C   UNL d   1       6.449   0.318 -19.949  0.00  0.00     0.138 C 
ATOM     14  C   UNL d   1       7.795   0.537 -19.234  0.00  0.00     0.274 C 
BRANCH  12  15
ATOM     15  C   UNL d   1       5.369  -1.920 -20.346  0.00  0.00     0.138 A 
ATOM     16  C   UNL d   1       4.277  -2.761 -20.029  0.00  0.00     0.036 A 
ATOM     17  C   UNL d   1       3.859  -3.727 -20.929  0.00  0.00     0.095 A 
ATOM     18  C   UNL d   1       3.368  -2.777 -18.842  0.00  0.00     0.064 C 
ATOM     19  C   UNL d   1       4.522  -3.889 -22.152  0.00  0.00     0.045 A 
ATOM     20  O   UNL d   1       2.764  -4.424 -20.500  0.00  0.00    -0.331 OA
ATOM     21  C   UNL d   1       5.606  -3.020 -22.401  0.00  0.00     0.103 A 
ATOM     22  N   UNL d   1       6.012  -2.061 -21.527  0.00  0.00    -0.228 NA
ATOM     23  C   UNL d   1       2.488  -4.004 -19.157  0.00  0.00     0.154 C 
ENDBRANCH  12  15
ENDBRANCH   8   9
ENDBRANCH   7   8
ENDBRANCH   4   7
BRANCH   1  24
ATOM     24  N   UNL d   1       9.498   5.275 -12.217  0.00  0.00    -0.236 NA
ATOM     25  C   UNL d   1       8.643   5.489 -11.210  0.00  0.00     0.275 C 
ATOM     26  O   UNL d   1       7.455   5.176 -11.261  0.00  0.00    -0.266 OA
BRANCH  25  27
ATOM     27  C   UNL d   1       9.238   6.091  -9.972  0.00  0.00     0.058 A 
ATOM     28  C   UNL d   1      10.252   7.074 -10.058  0.00  0.00     0.005 A 
ATOM     29  C   UNL d   1      10.771   7.675  -8.899  0.00  0.00     0.000 A 
ATOM     30  C   UNL d   1      10.281   7.319  -7.624  0.00  0.00     0.002 A 
ATOM     31  C   UNL d   1       9.247   6.362  -7.546  0.00  0.00     0.000 A 
ATOM     32  C   UNL d   1       8.733   5.747  -8.703  0.00  0.00     0.005 A 
BRANCH  30  33
ATOM     33  C   UNL d   1      10.831   7.934  -6.404  0.00  0.00     0.019 A 
ATOM     34  C   UNL d   1      10.965   9.334  -6.287  0.00  0.00     0.099 A 
ATOM     35  N   UNL d   1      11.455   9.956  -5.193  0.00  0.00    -0.242 NA
ATOM     36  C   UNL d   1      11.860   9.188  -4.160  0.00  0.00     0.099 A 
ATOM     37  C   UNL d   1      11.784   7.783  -4.168  0.00  0.00     0.021 A 
ATOM     38  C   UNL d   1      11.248   7.150  -5.307  0.00  0.00     0.003 A 
ENDBRANCH  30  33
ENDBRANCH  25  27
ENDBRANCH   1  24
TORSDOF 7
