REMARK  8 active torsions:
REMARK  status: ('A' for Active; 'I' for Inactive)
REMARK    1  A    between atoms: C_2  and  C_3 
REMARK    2  A    between atoms: C_3  and  N_4 
REMARK    3  A    between atoms: N_4  and  C_5 
REMARK    4  A    between atoms: N_4  and  C_12 
REMARK    5  A    between atoms: C_5  and  C_6 
REMARK    6  A    between atoms: C_6  and  C_7 
REMARK    7  A    between atoms: C_20  and  O_21 
REMARK    8  A    between atoms: O_21  and  C_22 
ROOT
ATOM      1  C   UNL d   1       7.273   4.457 -13.566  0.00  0.00     0.224 C 
ATOM      2  C   UNL d   1       8.520   3.764 -14.180  0.00  0.00     0.038 C 
ATOM      3  C   UNL d   1       8.194   2.576 -15.092  0.00  0.00     0.030 C 
ATOM      4  C   UNL d   1       7.098   1.705 -14.527  0.00  0.00    -0.004 A 
ATOM      5  C   UNL d   1       6.261   2.140 -13.484  0.00  0.00    -0.022 A 
ATOM      6  C   UNL d   1       5.287   1.277 -12.975  0.00  0.00    -0.004 A 
ATOM      7  C   UNL d   1       5.083   0.004 -13.539  0.00  0.00     0.002 A 
ATOM      8  C   UNL d   1       5.925  -0.435 -14.560  0.00  0.00     0.024 A 
ATOM      9  C   UNL d   1       6.925   0.418 -15.073  0.00  0.00     0.090 A 
ATOM     10  C   UNL d   1       6.415   3.463 -12.772  0.00  0.00     0.059 C 
ENDROOT
BRANCH   1  11
ATOM     11  N   UNL d   1       7.621   5.673 -12.808  0.00  0.00     0.136 N 
BRANCH  11  12
ATOM     12  C   UNL d   1       6.481   6.337 -12.126  0.00  0.00     0.250 C 
BRANCH  12  13
ATOM     13  C   UNL d   1       5.829   7.417 -12.998  0.00  0.00     0.035 C 
ATOM     14  C   UNL d   1       5.114   8.518 -12.204  0.00  0.00     0.002 C 
ENDBRANCH  12  13
ENDBRANCH  11  12
BRANCH  11  15
ATOM     15  C   UNL d   1       8.652   5.435 -11.802  0.00  0.00     0.255 C 
BRANCH  15  16
ATOM     16  C   UNL d   1       9.308   6.747 -11.333  0.00  0.00     0.068 C 
BRANCH  16  17
ATOM     17  C   UNL d   1       9.796   6.728  -9.921  0.00  0.00     0.009 A 
ATOM     18  S   UNL d   1       9.140   5.608  -8.754  0.00  0.00    -0.091 SA
ATOM     19  C   UNL d   1      10.108   6.307  -7.481  0.00  0.00     0.035 A 
ATOM     20  C   UNL d   1      10.890   7.333  -7.935  0.00  0.00     0.007 A 
ATOM     21  C   UNL d   1      10.711   7.572  -9.334  0.00  0.00     0.003 A 
ENDBRANCH  16  17
ENDBRANCH  15  16
ENDBRANCH  11  15
ENDBRANCH   1  11
BRANCH   9  22
ATOM     22  O   UNL d   1       7.763   0.022 -16.087  0.00  0.00    -0.334 OA
BRANCH  22  23
ATOM     23  C   UNL d   1       7.164  -0.507 -17.253  0.00  0.00     0.121 C 
ATOM     24  C   UNL d   1       6.498   0.619 -18.065  0.00  0.00     0.030 C 
ATOM     25  C   UNL d   1       7.021   0.463 -19.488  0.00  0.00     0.003 C 
ATOM     26  C   UNL d   1       8.409  -0.146 -19.316  0.00  0.00     0.003 C 
ATOM     27  C   UNL d   1       8.294  -1.073 -18.110  0.00  0.00     0.030 C 
ENDBRANCH  22  23
ENDBRANCH   9  22
TORSDOF 8
