REMARK  4 active torsions:
REMARK  status: ('A' for Active; 'I' for Inactive)
REMARK    1  A    between atoms: C_6  and  C_7 
REMARK    2  A    between atoms: C_9  and  C_10 
REMARK    3  A    between atoms: C_10  and  N_11 
REMARK    4  A    between atoms: N_14  and  C_15 
ROOT
ATOM      1  N   UNL d   1       6.259   0.394 -14.033  0.00  0.00    -0.191 NA
ATOM      2  C   UNL d   1       7.283   0.684 -14.491  0.00  0.00     0.111 C 
ATOM      3  C   UNL d   1       8.527   1.112 -15.037  0.00  0.00     0.138 C 
ATOM      4  C   UNL d   1       9.297   0.263 -15.886  0.00  0.00     0.111 C 
ATOM      5  N   UNL d   1       9.909  -0.414 -16.600  0.00  0.00    -0.191 NA
ATOM      6  C   UNL d   1       9.007   2.340 -14.757  0.00  0.00     0.040 C 
ENDROOT
BRANCH   6   7
ATOM      7  C   UNL d   1       8.455   3.410 -13.982  0.00  0.00     0.083 A 
ATOM      8  N   UNL d   1       7.123   3.464 -13.633  0.00  0.00    -0.244 NA
ATOM      9  C   UNL d   1       6.865   4.552 -12.834  0.00  0.00     0.097 A 
ATOM     10  C   UNL d   1       8.049   5.215 -12.663  0.00  0.00     0.032 A 
ATOM     11  C   UNL d   1       9.046   4.496 -13.391  0.00  0.00     0.018 A 
BRANCH  10  12
ATOM     12  C   UNL d   1       8.245   6.487 -11.891  0.00  0.00     0.279 C 
BRANCH  12  13
ATOM     13  N   UNL d   1       9.410   6.475 -11.008  0.00  0.00     0.145 N 
ATOM     14  C   UNL d   1       9.864   7.852 -10.780  0.00  0.00     0.275 C 
ATOM     15  C   UNL d   1      11.080   7.873  -9.846  0.00  0.00     0.137 C 
ATOM     16  N   UNL d   1      10.739   7.214  -8.586  0.00  0.00    -0.344 N 
ATOM     17  C   UNL d   1      10.147   5.886  -8.721  0.00  0.00     0.137 C 
ATOM     18  C   UNL d   1       8.993   5.905  -9.717  0.00  0.00     0.275 C 
BRANCH  16  19
ATOM     19  C   UNL d   1      11.003   7.784  -7.324  0.00  0.00     0.056 A 
ATOM     20  C   UNL d   1      11.240   6.962  -6.196  0.00  0.00     0.018 A 
ATOM     21  C   UNL d   1      11.460   7.523  -4.924  0.00  0.00     0.013 A 
ATOM     22  C   UNL d   1      11.496   8.919  -4.773  0.00  0.00     0.058 A 
ATOM     23  C   UNL d   1      11.270   9.752  -5.882  0.00  0.00     0.013 A 
ATOM     24 CL   UNL d   1      11.856   9.589  -3.232  0.00  0.00    -0.082 Cl
ATOM     25  C   UNL d   1      11.034   9.188  -7.150  0.00  0.00     0.018 A 
ENDBRANCH  16  19
ENDBRANCH  12  13
ENDBRANCH  10  12
ENDBRANCH   6   7
TORSDOF 4
