REMARK  8 active torsions:
REMARK  status: ('A' for Active; 'I' for Inactive)
REMARK    1  A    between atoms: C_3  and  S_4 
REMARK    2  A    between atoms: S_4  and  C_5 
REMARK    3  A    between atoms: C_5  and  C_6 
REMARK    4  A    between atoms: C_6  and  C_7 
REMARK    5  A    between atoms: C_7  and  N_8 
REMARK    6  A    between atoms: N_13  and  C_14 
REMARK    7  A    between atoms: C_17  and  C_18 
REMARK    8  A    between atoms: C_28  and  C_29 
ROOT
ATOM      1  N   UNL d   1       9.281   2.823 -13.245  0.00  0.00     0.138 N 
ATOM      2  C   UNL d   1       8.101   3.412 -13.877  0.00  0.00     0.252 C 
ATOM      3  C   UNL d   1       7.540   4.222 -12.713  0.00  0.00     0.052 C 
ATOM      4  C   UNL d   1       7.123   5.617 -13.097  0.00  0.00     0.021 C 
ATOM      5  C   UNL d   1       7.568   6.484 -11.934  0.00  0.00     0.077 C 
ATOM      6  N   UNL d   1       8.857   5.943 -11.605  0.00  0.00    -0.252 NA
ATOM      7  C   UNL d   1       8.713   4.510 -11.812  0.00  0.00     0.097 C 
ATOM      8  C   UNL d   1       9.903   3.912 -12.532  0.00  0.00     0.266 C 
ENDROOT
BRANCH   1   9
ATOM      9  C   UNL d   1      10.202   2.263 -14.233  0.00  0.00     0.251 C 
BRANCH   9  10
ATOM     10  C   UNL d   1       9.717   0.928 -14.828  0.00  0.00     0.047 C 
BRANCH  10  11
ATOM     11  C   UNL d   1      10.624   0.383 -15.946  0.00  0.00     0.067 C 
BRANCH  11  12
ATOM     12  S   UNL d   1      10.306   1.119 -17.596  0.00  0.00    -0.075 SA
BRANCH  12  13
ATOM     13  C   UNL d   1      11.391   2.519 -17.499  0.00  0.00     0.193 A 
ATOM     14  N   UNL d   1      11.466   3.499 -18.446  0.00  0.00    -0.292 N 
ATOM     15  C   UNL d   1      10.853   3.555 -19.749  0.00  0.00     0.134 C 
ATOM     16  C   UNL d   1      12.301   4.389 -17.846  0.00  0.00     0.143 A 
ATOM     17  N   UNL d   1      12.721   3.980 -16.645  0.00  0.00    -0.133 NA
ATOM     18  N   UNL d   1      12.193   2.741 -16.468  0.00  0.00    -0.122 NA
BRANCH  16  19
ATOM     19  C   UNL d   1      12.812   5.646 -18.497  0.00  0.00     0.059 C 
ATOM     20  C   UNL d   1      12.486   6.936 -17.698  0.00  0.00     0.007 C 
ATOM     21  C   UNL d   1      13.287   7.063 -16.376  0.00  0.00     0.000 C 
ATOM     22  C   UNL d   1      14.798   6.866 -16.657  0.00  0.00     0.000 C 
ATOM     23  C   UNL d   1      15.183   5.620 -17.486  0.00  0.00     0.000 C 
ATOM     24  C   UNL d   1      14.335   5.550 -18.777  0.00  0.00     0.007 C 
ENDBRANCH  16  19
ENDBRANCH  12  13
ENDBRANCH  11  12
ENDBRANCH  10  11
ENDBRANCH   9  10
ENDBRANCH   1   9
BRANCH   6  25
ATOM     25  C   UNL d   1       9.323   6.353 -10.345  0.00  0.00     0.036 A 
ATOM     26  C   UNL d   1       8.887   5.752  -9.137  0.00  0.00     0.011 A 
ATOM     27  C   UNL d   1       9.430   6.163  -7.913  0.00  0.00     0.005 A 
ATOM     28  C   UNL d   1      10.395   7.181  -7.848  0.00  0.00     0.071 A 
ATOM     29  C   UNL d   1      10.805   7.816  -9.045  0.00  0.00     0.005 A 
ATOM     30  C   UNL d   1      10.254   7.410 -10.279  0.00  0.00     0.011 A 
BRANCH  28  31
ATOM     31  C   UNL d   1      10.955   7.584  -6.498  0.00  0.00     0.419 C 
ATOM     32  F   UNL d   1       9.946   7.969  -5.722  0.00  0.00    -0.166 F 
ATOM     33  F   UNL d   1      11.547   6.533  -5.929  0.00  0.00    -0.166 F 
ATOM     34  F   UNL d   1      11.831   8.588  -6.583  0.00  0.00    -0.166 F 
ENDBRANCH  28  31
ENDBRANCH   6  25
TORSDOF 8
