REMARK  3 active torsions:
REMARK  status: ('A' for Active; 'I' for Inactive)
REMARK    1  A    between atoms: N_16  and  C_17 
REMARK    2  A    between atoms: C_17  and  C_18 
REMARK    3  A    between atoms: C_18  and  C_19 
ROOT
ATOM      1  O   UNL d   1       6.541   4.580 -12.320  0.00  0.00    -0.291 OA
ATOM      2  C   UNL d   1       7.358   4.022 -13.067  0.00  0.00     0.174 C 
ATOM      3  C   UNL d   1       7.032   2.763 -13.772  0.00  0.00     0.058 A 
ATOM      4  C   UNL d   1       5.802   2.080 -13.519  0.00  0.00     0.145 A 
ATOM      5  F   UNL d   1       4.866   2.586 -12.673  0.00  0.00    -0.204 F 
ATOM      6  C   UNL d   1       5.485   0.887 -14.163  0.00  0.00     0.059 A 
ATOM      7  C   UNL d   1       6.369   0.336 -15.084  0.00  0.00     0.142 A 
ATOM      8  F   UNL d   1       5.982  -0.768 -15.787  0.00  0.00    -0.204 F 
ATOM      9  C   UNL d   1       7.627   0.945 -15.325  0.00  0.00     0.026 A 
ATOM     10  C   UNL d   1       7.967   2.163 -14.674  0.00  0.00    -0.015 A 
ATOM     11  C   UNL d   1       9.332   2.782 -14.938  0.00  0.00     0.027 C 
ATOM     12  C   UNL d   1       9.381   4.301 -14.623  0.00  0.00     0.012 C 
ATOM     13  C   UNL d   1       8.788   4.604 -13.217  0.00  0.00     0.060 C 
ATOM     14  C   UNL d   1       8.772   6.143 -12.987  0.00  0.00     0.043 C 
ATOM     15  C   UNL d   1       8.528   6.617 -11.553  0.00  0.00     0.251 C 
ATOM     16  N   UNL d   1       9.537   5.997 -10.706  0.00  0.00     0.137 N 
ATOM     17  C   UNL d   1       9.450   4.537 -10.765  0.00  0.00     0.251 C 
ATOM     18  C   UNL d   1       9.742   4.015 -12.166  0.00  0.00     0.043 C 
ENDROOT
BRANCH  16  19
ATOM     19  C   UNL d   1       9.276   6.379  -9.338  0.00  0.00     0.255 C 
BRANCH  19  20
ATOM     20  C   UNL d   1       9.874   7.764  -9.003  0.00  0.00     0.062 C 
BRANCH  20  21
ATOM     21  C   UNL d   1      10.383   7.894  -7.573  0.00  0.00    -0.020 A 
ATOM     22  C   UNL d   1      10.323   6.839  -6.625  0.00  0.00    -0.004 A 
ATOM     23  C   UNL d   1      10.889   6.970  -5.356  0.00  0.00    -0.000 A 
ATOM     24  C   UNL d   1      11.469   8.186  -4.947  0.00  0.00    -0.000 A 
ATOM     25  C   UNL d   1      11.524   9.262  -5.863  0.00  0.00    -0.000 A 
ATOM     26  C   UNL d   1      10.997   9.117  -7.162  0.00  0.00    -0.004 A 
ENDBRANCH  20  21
ENDBRANCH  19  20
ENDBRANCH  16  19
TORSDOF 3
