REMARK  4 active torsions:
REMARK  status: ('A' for Active; 'I' for Inactive)
REMARK    1  A    between atoms: N_5  and  C_6 
REMARK    2  A    between atoms: C_11  and  C_12 
REMARK    3  A    between atoms: C_12  and  S_15 
REMARK    4  A    between atoms: S_15  and  C_16 
ROOT
ATOM      1  C   UNL d   1       8.628   2.332 -15.088  0.00  0.00     0.744 A 
ATOM      2  N   UNL d   1       8.546   3.134 -14.025  0.00  0.00     0.134 NA
ATOM      3  C   UNL d   1       9.176   4.292 -14.197  0.00  0.00     0.785 A 
ATOM      4  N   UNL d   1       9.146   5.154 -13.130  0.00  0.00     0.063 N 
ATOM      5  N   UNL d   1       9.805   4.731 -15.286  0.00  0.00    -0.041 NA
ATOM      6  C   UNL d   1       9.762   3.835 -16.288  0.00  0.00     0.185 A 
ATOM      7  N   UNL d   1       9.233   2.603 -16.239  0.00  0.00    -0.044 NA
ENDROOT
BRANCH   6   8
ATOM      8  C   UNL d   1      10.315   4.300 -17.657  0.00  0.00     0.097 C 
ATOM      9  C   UNL d   1      11.833   4.438 -17.556  0.00  0.00     0.019 C 
ATOM     10  C   UNL d   1      10.066   3.266 -18.781  0.00  0.00     0.019 C 
BRANCH   8  11
ATOM     11  S   UNL d   1       9.454   5.854 -18.091  0.00  0.00    -0.108 SA
BRANCH  11  12
ATOM     12  C   UNL d   1      10.364   6.700 -19.361  0.00  0.00     0.025 C 
ATOM     13  C   UNL d   1       9.655   7.344 -20.418  0.00  0.00     0.006 C 
ATOM     14  C   UNL d   1      10.391   8.069 -21.389  0.00  0.00     0.001 A 
ATOM     15  C   UNL d   1      11.814   8.070 -21.336  0.00  0.00     0.000 A 
ATOM     16  C   UNL d   1       9.742   8.785 -22.385  0.00  0.00     0.000 A 
ATOM     17  C   UNL d   1      12.482   7.391 -20.295  0.00  0.00     0.001 C 
ATOM     18  C   UNL d   1      12.577   8.802 -22.283  0.00  0.00     0.000 A 
ATOM     19  C   UNL d   1      11.753   6.812 -19.306  0.00  0.00     0.006 C 
ATOM     20  C   UNL d   1      11.904   9.521 -23.271  0.00  0.00     0.000 A 
ATOM     21  C   UNL d   1      10.499   9.503 -23.324  0.00  0.00     0.000 A 
ENDBRANCH  11  12
ENDBRANCH   8  11
ENDBRANCH   6   8
BRANCH   1  22
ATOM     22  N   UNL d   1       7.940   1.117 -15.029  0.00  0.00    -0.178 N 
ATOM     23  C   UNL d   1       8.133   0.026 -15.980  0.00  0.00     0.155 C 
ATOM     24  C   UNL d   1       6.784  -0.419 -16.579  0.00  0.00     0.275 C 
ATOM     25  N   UNL d   1       5.847  -0.792 -15.509  0.00  0.00     0.143 N 
ATOM     26  C   UNL d   1       4.592  -1.234 -16.094  0.00  0.00     0.286 C 
ATOM     27  C   UNL d   1       5.616   0.376 -14.654  0.00  0.00     0.275 C 
ATOM     28  C   UNL d   1       6.936   0.834 -14.012  0.00  0.00     0.155 C 
ENDBRANCH   1  22
TORSDOF 4
