REMARK  2 active torsions:
REMARK  status: ('A' for Active; 'I' for Inactive)
REMARK    1  A    between atoms: C_9  and  C_10 
REMARK    2  A    between atoms: C_10  and  C_11 
ROOT
ATOM      1  F   UNL d   1      12.435   7.322  -1.752  0.00  0.00    -0.204 F 
ATOM      2  C   UNL d   1      12.056   7.826  -2.945  0.00  0.00     0.140 A 
ATOM      3  C   UNL d   1      11.865   9.223  -3.093  0.00  0.00     0.029 A 
ATOM      4  C   UNL d   1      11.450   9.759  -4.330  0.00  0.00    -0.002 A 
ATOM      5  C   UNL d   1      11.284   8.893  -5.413  0.00  0.00    -0.026 A 
ATOM      6  C   UNL d   1      11.470   7.531  -5.271  0.00  0.00    -0.024 A 
ATOM      7  C   UNL d   1      11.855   6.965  -4.046  0.00  0.00     0.025 A 
ATOM      8  C   UNL d   1      11.219   6.811  -6.558  0.00  0.00     0.026 C 
ATOM      9  C   UNL d   1      11.031   7.947  -7.604  0.00  0.00     0.011 C 
ATOM     10  C   UNL d   1      10.888   9.266  -6.810  0.00  0.00     0.026 C 
ENDROOT
BRANCH   9  11
ATOM     11  C   UNL d   1       9.859   7.719  -8.589  0.00  0.00     0.027 C 
BRANCH  11  12
ATOM     12  C   UNL d   1      10.065   6.509  -9.517  0.00  0.00     0.129 C 
ATOM     13  N   UNL d   1       9.670   5.291  -8.835  0.00  0.00    -0.251 NA
ATOM     14  C   UNL d   1       8.668   4.800  -9.470  0.00  0.00     0.190 C 
ATOM     15  N   UNL d   1       8.315   5.437 -10.631  0.00  0.00    -0.249 NA
ATOM     16  C   UNL d   1       9.209   6.548 -10.796  0.00  0.00     0.152 C 
ENDBRANCH  11  12
ENDBRANCH   9  11
TORSDOF 2
