REMARK  8 active torsions:
REMARK  status: ('A' for Active; 'I' for Inactive)
REMARK    1  A    between atoms: C_6  and  C_7 
REMARK    2  A    between atoms: N_10  and  C_11 
REMARK    3  A    between atoms: C_11  and  C_12 
REMARK    4  A    between atoms: C_12  and  C_13 
REMARK    5  A    between atoms: C_13  and  O_14 
REMARK    6  A    between atoms: O_14  and  C_15 
REMARK    7  A    between atoms: C_18  and  C_19 
REMARK    8  A    between atoms: C_19  and  N_20 
ROOT
ATOM      1  C   UNL d   1       6.667   2.155 -14.627  0.00  0.00     0.253 C 
ENDROOT
BRANCH   1   2
ATOM      2  N   UNL d   1       7.226   3.370 -14.033  0.00  0.00     0.137 N 
ATOM      3  C   UNL d   1       8.678   3.238 -13.791  0.00  0.00     0.251 C 
ATOM      4  C   UNL d   1       9.254   4.530 -13.228  0.00  0.00     0.041 C 
ATOM      5  C   UNL d   1       8.521   4.962 -11.956  0.00  0.00     0.047 C 
ATOM      6  C   UNL d   1       7.003   4.986 -12.184  0.00  0.00     0.041 C 
ATOM      7  C   UNL d   1       6.504   3.671 -12.794  0.00  0.00     0.251 C 
BRANCH   5   8
ATOM      8  C   UNL d   1       9.026   6.300 -11.482  0.00  0.00     0.087 A 
ATOM      9  C   UNL d   1       9.577   6.704 -10.247  0.00  0.00     0.041 A 
ATOM     10  C   UNL d   1       9.829   5.989  -9.053  0.00  0.00     0.006 A 
ATOM     11  C   UNL d   1       9.858   8.069 -10.301  0.00  0.00     0.129 A 
ATOM     12  C   UNL d   1      10.379   6.684  -7.952  0.00  0.00     0.030 A 
ATOM     13  C   UNL d   1      10.679   8.067  -8.043  0.00  0.00     0.142 A 
ATOM     14  F   UNL d   1      11.214   8.715  -6.978  0.00  0.00    -0.204 F 
ATOM     15  C   UNL d   1      10.423   8.776  -9.236  0.00  0.00     0.057 A 
ATOM     16  O   UNL d   1       9.469   8.474 -11.567  0.00  0.00    -0.211 OA
ATOM     17  N   UNL d   1       8.970   7.361 -12.293  0.00  0.00    -0.131 NA
ENDBRANCH   5   8
ENDBRANCH   1   2
BRANCH   1  18
ATOM     18  C   UNL d   1       7.151   1.969 -16.090  0.00  0.00     0.068 C 
BRANCH  18  19
ATOM     19  C   UNL d   1       6.667   0.644 -16.697  0.00  0.00     0.151 C 
BRANCH  19  20
ATOM     20  O   UNL d   1       7.141   0.497 -18.027  0.00  0.00    -0.331 OA
BRANCH  20  21
ATOM     21  C   UNL d   1       8.464   0.188 -18.243  0.00  0.00     0.095 A 
ATOM     22  C   UNL d   1       8.857  -0.044 -19.578  0.00  0.00     0.035 A 
ATOM     23  C   UNL d   1      10.199  -0.324 -19.909  0.00  0.00     0.058 A 
ATOM     24  C   UNL d   1      11.170  -0.327 -18.881  0.00  0.00     0.022 A 
ATOM     25 CL   UNL d   1      10.611  -0.674 -21.552  0.00  0.00    -0.083 Cl
ATOM     26  C   UNL d   1      10.780  -0.073 -17.545  0.00  0.00     0.001 A 
ATOM     27  C   UNL d   1       9.436   0.134 -17.215  0.00  0.00     0.024 A 
BRANCH  24  28
ATOM     28  C   UNL d   1      12.635  -0.618 -19.166  0.00  0.00     0.278 C 
BRANCH  28  29
ATOM     29  N   UNL d   1      13.334   0.482 -19.821  0.00  0.00     0.147 N 
ATOM     30  C   UNL d   1      14.689   0.090 -20.188  0.00  0.00     0.283 C 
ATOM     31  C   UNL d   1      15.442   1.233 -20.885  0.00  0.00     0.178 C 
ATOM     32  O   UNL d   1      15.460   2.377 -20.034  0.00  0.00    -0.350 OA
ATOM     33  C   UNL d   1      14.153   2.829 -19.699  0.00  0.00     0.178 C 
ATOM     34  C   UNL d   1      13.386   1.695 -19.004  0.00  0.00     0.283 C 
ENDBRANCH  28  29
ENDBRANCH  24  28
ENDBRANCH  20  21
ENDBRANCH  19  20
ENDBRANCH  18  19
ENDBRANCH   1  18
TORSDOF 8
