REMARK  7 active torsions:
REMARK  status: ('A' for Active; 'I' for Inactive)
REMARK       I    between atoms: C_2  and  N_3 
REMARK    1  A    between atoms: C_2  and  C_27 
REMARK    2  A    between atoms: N_3  and  C_4 
REMARK    3  A    between atoms: C_7  and  C_8 
REMARK    4  A    between atoms: C_8  and  C_9 
REMARK    5  A    between atoms: C_9  and  N_10 
REMARK    6  A    between atoms: C_13  and  C_14 
REMARK    7  A    between atoms: C_30  and  C_31 
ROOT
ATOM      1  C   UNL d   1       8.914   3.026 -15.562  0.00  0.00     0.107 C 
ATOM      2  C   UNL d   1       7.788   2.844 -14.519  0.00  0.00     0.024 C 
ATOM      3  C   UNL d   1       7.773   4.002 -13.517  0.00  0.00     0.002 C 
ATOM      4  C   UNL d   1       9.150   4.180 -12.856  0.00  0.00     0.002 C 
ATOM      5  C   UNL d   1      10.261   4.326 -13.909  0.00  0.00     0.002 C 
ATOM      6  C   UNL d   1      10.284   3.165 -14.897  0.00  0.00     0.024 C 
ENDROOT
BRANCH   4   7
ATOM      7  C   UNL d   1       9.148   5.399 -11.921  0.00  0.00     0.035 C 
BRANCH   7   8
ATOM      8  C   UNL d   1       8.630   5.089 -10.502  0.00  0.00     0.250 C 
BRANCH   8   9
ATOM      9  N   UNL d   1       9.039   6.062  -9.489  0.00  0.00     0.137 N 
ATOM     10  C   UNL d   1       8.828   5.480  -8.158  0.00  0.00     0.251 C 
ATOM     11  C   UNL d   1       9.140   6.508  -7.059  0.00  0.00     0.040 C 
ATOM     12  C   UNL d   1      10.582   7.028  -7.183  0.00  0.00     0.028 C 
ATOM     13  C   UNL d   1      10.812   7.538  -8.605  0.00  0.00     0.040 C 
ATOM     14  C   UNL d   1      10.437   6.478  -9.628  0.00  0.00     0.251 C 
BRANCH  12  15
ATOM     15  C   UNL d   1      10.876   8.104  -6.186  0.00  0.00     0.004 A 
ATOM     16  C   UNL d   1      11.403   7.967  -4.865  0.00  0.00     0.021 A 
ATOM     17  C   UNL d   1      11.470   9.277  -4.327  0.00  0.00     0.100 A 
ATOM     18  C   UNL d   1      11.812   6.900  -4.035  0.00  0.00     0.002 A 
ATOM     19  O   UNL d   1      11.028  10.186  -5.263  0.00  0.00    -0.305 OA
ATOM     20  C   UNL d   1      11.913   9.544  -3.033  0.00  0.00     0.025 A 
ATOM     21  C   UNL d   1      10.679   9.454  -6.359  0.00  0.00     0.118 A 
ATOM     22  C   UNL d   1      12.325   8.465  -2.227  0.00  0.00     0.002 A 
ATOM     23  C   UNL d   1      12.264   7.144  -2.725  0.00  0.00     0.000 A 
ENDBRANCH  12  15
ENDBRANCH   8   9
ENDBRANCH   7   8
ENDBRANCH   4   7
BRANCH   1  24
ATOM     24  N   UNL d   1       8.913   1.886 -16.464  0.00  0.00    -0.236 NA
ATOM     25  C   UNL d   1       8.659   1.931 -17.779  0.00  0.00     0.275 C 
ATOM     26  O   UNL d   1       8.596   2.967 -18.435  0.00  0.00    -0.266 OA
BRANCH  25  27
ATOM     27  C   UNL d   1       8.319   0.611 -18.401  0.00  0.00     0.058 A 
ATOM     28  C   UNL d   1       7.408   0.560 -19.480  0.00  0.00     0.005 A 
ATOM     29  C   UNL d   1       7.063  -0.674 -20.062  0.00  0.00     0.004 A 
ATOM     30  C   UNL d   1       7.626  -1.872 -19.576  0.00  0.00     0.071 A 
ATOM     31  C   UNL d   1       8.547  -1.818 -18.509  0.00  0.00     0.004 A 
ATOM     32  C   UNL d   1       8.897  -0.587 -17.927  0.00  0.00     0.005 A 
BRANCH  30  33
ATOM     33  C   UNL d   1       7.258  -3.203 -20.213  0.00  0.00     0.419 C 
ATOM     34  F   UNL d   1       5.979  -3.210 -20.589  0.00  0.00    -0.166 F 
ATOM     35  F   UNL d   1       8.019  -3.391 -21.291  0.00  0.00    -0.166 F 
ATOM     36  F   UNL d   1       7.456  -4.215 -19.367  0.00  0.00    -0.166 F 
ENDBRANCH  30  33
ENDBRANCH  25  27
ENDBRANCH   1  24
TORSDOF 7
