REMARK  0 active torsions:
REMARK  status: ('A' for Active; 'I' for Inactive)
ROOT
ATOM      1  C   UNL d   1      12.084   7.352  -2.622  0.00  0.00     0.035 A 
ATOM      2  C   UNL d   1      11.704   6.690  -3.755  0.00  0.00     0.005 A 
ATOM      3  C   UNL d   1      11.518   7.540  -4.877  0.00  0.00     0.009 A 
ATOM      4  C   UNL d   1      11.803   8.848  -4.583  0.00  0.00     0.006 A 
ATOM      5  S   UNL d   1      12.252   9.061  -2.916  0.00  0.00    -0.091 SA
ATOM      6  C   UNL d   1      11.745   9.970  -5.561  0.00  0.00     0.035 C 
ATOM      7  C   UNL d   1      11.035   9.563  -6.854  0.00  0.00     0.044 C 
ATOM      8  C   UNL d   1      11.450   8.156  -7.324  0.00  0.00     0.288 C 
ATOM      9  N   UNL d   1      10.888   7.806  -8.633  0.00  0.00     0.343 N 
ATOM     10  C   UNL d   1       9.460   7.501  -8.560  0.00  0.00     0.322 C 
ATOM     11  C   UNL d   1       9.213   6.399  -7.523  0.00  0.00     0.181 C 
ATOM     12  O   UNL d   1       9.695   6.841  -6.258  0.00  0.00    -0.348 OA
ATOM     13  C   UNL d   1      11.097   7.087  -6.249  0.00  0.00     0.172 C 
ENDROOT
TORSDOF 0
