REMARK  8 active torsions:
REMARK  status: ('A' for Active; 'I' for Inactive)
REMARK    1  A    between atoms: O_2  and  C_3 
REMARK    2  A    between atoms: C_9  and  N_10 
REMARK    3  A    between atoms: N_13  and  C_14 
REMARK    4  A    between atoms: C_14  and  C_15 
REMARK    5  A    between atoms: C_15  and  C_16 
REMARK    6  A    between atoms: C_16  and  C_17 
REMARK    7  A    between atoms: C_17  and  N_18 
REMARK       I    between atoms: N_18  and  C_19 
REMARK    8  A    between atoms: C_19  and  C_21 
ROOT
ATOM      1  C   UNL d   1       7.681   4.922 -13.127  0.00  0.00     0.251 C 
ENDROOT
BRANCH   1   2
ATOM      2  N   UNL d   1       8.683   5.721 -12.431  0.00  0.00     0.141 N 
ATOM      3  C   UNL d   1       8.074   7.005 -12.032  0.00  0.00     0.274 C 
ATOM      4  C   UNL d   1       9.102   7.900 -11.265  0.00  0.00     0.137 C 
ATOM      5  N   UNL d   1       9.524   7.130 -10.118  0.00  0.00    -0.343 N 
ATOM      6  C   UNL d   1      10.079   5.859 -10.448  0.00  0.00     0.137 C 
ATOM      7  C   UNL d   1       9.109   4.999 -11.233  0.00  0.00     0.274 C 
BRANCH   5   8
ATOM      8  C   UNL d   1       9.692   7.590  -8.804  0.00  0.00     0.080 A 
ATOM      9  C   UNL d   1      10.463   8.726  -8.469  0.00  0.00     0.120 A 
ATOM     10  C   UNL d   1      10.590   9.081  -7.090  0.00  0.00     0.081 A 
ATOM     11 CL   UNL d   1      11.591  10.323  -6.421  0.00  0.00    -0.080 Cl
ATOM     12  C   UNL d   1       9.926   8.320  -6.132  0.00  0.00     0.013 A 
ATOM     13  C   UNL d   1       9.201   7.169  -6.460  0.00  0.00     0.003 A 
ATOM     14  C   UNL d   1       9.101   6.797  -7.809  0.00  0.00     0.019 A 
BRANCH   9  15
ATOM     15  O   UNL d   1      11.111   9.456  -9.442  0.00  0.00    -0.326 OA
ATOM     16  C   UNL d   1      12.226   8.782 -10.019  0.00  0.00     0.181 C 
ENDBRANCH   9  15
ENDBRANCH   5   8
ENDBRANCH   1   2
BRANCH   1  17
ATOM     17  C   UNL d   1       8.188   3.586 -13.681  0.00  0.00     0.037 C 
BRANCH  17  18
ATOM     18  C   UNL d   1       7.053   2.686 -14.204  0.00  0.00     0.029 C 
BRANCH  18  19
ATOM     19  C   UNL d   1       7.595   1.294 -14.562  0.00  0.00     0.129 C 
BRANCH  19  20
ATOM     20  N   UNL d   1       8.667   1.356 -15.551  0.00  0.00    -0.233 NA
ATOM     21  C   UNL d   1       8.485   1.450 -16.872  0.00  0.00     0.293 C 
ATOM     22  O   UNL d   1       7.377   1.546 -17.405  0.00  0.00    -0.264 OA
BRANCH  21  23
ATOM     23  C   UNL d   1       9.711   1.335 -17.680  0.00  0.00     0.139 A 
ATOM     24  N   UNL d   1       9.593   0.973 -19.012  0.00  0.00    -0.241 NA
ATOM     25  C   UNL d   1      10.831   0.925 -19.623  0.00  0.00     0.082 A 
ATOM     26  C   UNL d   1      11.764   1.298 -18.613  0.00  0.00     0.019 A 
ATOM     27  C   UNL d   1      11.236   0.609 -20.933  0.00  0.00     0.019 A 
ATOM     28  C   UNL d   1      11.037   1.553 -17.400  0.00  0.00     0.025 A 
ATOM     29  C   UNL d   1      13.128   1.347 -18.979  0.00  0.00     0.002 A 
ATOM     30  C   UNL d   1      13.547   1.030 -20.288  0.00  0.00     0.000 A 
ATOM     31  C   UNL d   1      12.603   0.661 -21.265  0.00  0.00     0.002 A 
ENDBRANCH  21  23
ENDBRANCH  19  20
ENDBRANCH  18  19
ENDBRANCH  17  18
ENDBRANCH   1  17
TORSDOF 8
