REMARK  5 active torsions:
REMARK  status: ('A' for Active; 'I' for Inactive)
REMARK    1  A    between atoms: O_2  and  C_3 
REMARK    2  A    between atoms: C_9  and  C_10 
REMARK    3  A    between atoms: C_12  and  N_13 
REMARK       I    between atoms: N_13  and  C_14 
REMARK    4  A    between atoms: N_21  and  S_22 
REMARK    5  A    between atoms: S_22  and  C_25 
ROOT
ATOM      1  C   UNL d   1       7.982   1.141 -16.171  0.00  0.00     0.094 A 
ATOM      2  C   UNL d   1       8.903   1.201 -17.241  0.00  0.00     0.026 A 
ATOM      3  C   UNL d   1       9.937   2.171 -17.228  0.00  0.00     0.020 A 
ATOM      4  C   UNL d   1      10.021   3.088 -16.143  0.00  0.00     0.075 A 
ATOM      5  C   UNL d   1       9.092   3.059 -15.062  0.00  0.00     0.022 A 
ATOM      6  C   UNL d   1       8.126   2.036 -15.102  0.00  0.00     0.026 A 
ATOM      7  C   UNL d   1       9.424   4.150 -14.164  0.00  0.00     0.039 A 
ATOM      8  C   UNL d   1      10.533   4.770 -14.707  0.00  0.00     0.093 A 
ATOM      9  N   UNL d   1      10.902   4.135 -15.882  0.00  0.00    -0.231 N 
ENDROOT
BRANCH   7  10
ATOM     10  C   UNL d   1       8.695   4.510 -12.935  0.00  0.00     0.115 A 
ATOM     11  C   UNL d   1       7.372   4.317 -12.527  0.00  0.00     0.096 A 
ATOM     12  N   UNL d   1       7.302   4.838 -11.238  0.00  0.00    -0.062 NA
ATOM     13  C   UNL d   1       6.155   3.707 -13.139  0.00  0.00     0.054 C 
ATOM     14  C   UNL d   1       8.490   5.323 -10.924  0.00  0.00     0.752 A 
ATOM     15  N   UNL d   1       9.384   5.171 -11.902  0.00  0.00    -0.058 NA
BRANCH  14  16
ATOM     16  N   UNL d   1       8.683   5.891  -9.635  0.00  0.00    -0.023 NA
ATOM     17  C   UNL d   1       9.746   6.576  -9.191  0.00  0.00     0.273 C 
ATOM     18  O   UNL d   1      10.748   6.810  -9.859  0.00  0.00    -0.270 OA
ATOM     19  C   UNL d   1       9.678   7.093  -7.761  0.00  0.00     0.101 C 
ENDBRANCH  14  16
ENDBRANCH   7  10
BRANCH   9  20
ATOM     20  S   UNL d   1      12.210   4.650 -16.878  0.00  0.00     0.271 S 
ATOM     21  O   UNL d   1      13.098   5.432 -15.998  0.00  0.00    -0.200 OA
ATOM     22  O   UNL d   1      12.692   3.443 -17.566  0.00  0.00    -0.200 OA
BRANCH  20  23
ATOM     23  C   UNL d   1      11.439   5.748 -18.070  0.00  0.00     0.106 A 
ATOM     24  C   UNL d   1      12.235   6.702 -18.731  0.00  0.00     0.043 A 
ATOM     25  C   UNL d   1      11.641   7.565 -19.674  0.00  0.00     0.141 A 
ATOM     26  C   UNL d   1      10.261   7.480 -19.947  0.00  0.00     0.030 A 
ATOM     27  F   UNL d   1      12.399   8.474 -20.331  0.00  0.00    -0.204 F 
ATOM     28  C   UNL d   1       9.467   6.526 -19.283  0.00  0.00     0.003 A 
ATOM     29  C   UNL d   1      10.056   5.659 -18.349  0.00  0.00     0.013 A 
ENDBRANCH  20  23
ENDBRANCH   9  20
BRANCH   1  30
ATOM     30  O   UNL d   1       7.005   0.167 -16.225  0.00  0.00    -0.328 OA
ATOM     31  C   UNL d   1       6.091   0.068 -15.127  0.00  0.00     0.181 C 
ENDBRANCH   1  30
TORSDOF 5
