REMARK  4 active torsions:
REMARK  status: ('A' for Active; 'I' for Inactive)
REMARK    1  A    between atoms: N_12  and  C_13 
REMARK    2  A    between atoms: C_13  and  C_14 
REMARK    3  A    between atoms: C_14  and  N_15 
REMARK    4  A    between atoms: N_18  and  C_19 
ROOT
ATOM      1  C   UNL d   1       9.338   4.776 -11.216  0.00  0.00     0.275 C 
ENDROOT
BRANCH   1   2
ATOM      2  C   UNL d   1       9.342   5.286 -12.677  0.00  0.00     0.147 C 
BRANCH   2   3
ATOM      3  N   UNL d   1       9.475   4.159 -13.603  0.00  0.00    -0.268 N 
ATOM      4  C   UNL d   1       8.331   3.531 -13.961  0.00  0.00     0.239 C 
ATOM      5  O   UNL d   1       7.204   3.880 -13.599  0.00  0.00    -0.272 OA
ATOM      6  C   UNL d   1       8.410   2.291 -14.846  0.00  0.00     0.089 C 
ATOM      7  C   UNL d   1       9.651   2.279 -15.762  0.00  0.00     0.018 C 
ATOM      8  C   UNL d   1       9.486   3.275 -16.935  0.00  0.00     0.001 C 
ATOM      9  C   UNL d   1       9.713   0.917 -16.474  0.00  0.00     0.001 C 
ATOM     10  C   UNL d   1      10.904   2.564 -14.926  0.00  0.00     0.089 C 
ATOM     11  C   UNL d   1       8.605   2.580 -17.942  0.00  0.00     0.000 C 
ATOM     12  C   UNL d   1       8.882   1.077 -17.757  0.00  0.00     0.000 C 
ATOM     13  C   UNL d   1      10.720   3.783 -14.014  0.00  0.00     0.239 C 
ATOM     14  O   UNL d   1      11.750   4.373 -13.675  0.00  0.00    -0.272 OA
ENDBRANCH   2   3
ENDBRANCH   1   2
BRANCH   1  15
ATOM     15  N   UNL d   1       9.143   5.857 -10.261  0.00  0.00     0.143 N 
ATOM     16  C   UNL d   1       9.125   5.298  -8.908  0.00  0.00     0.274 C 
ATOM     17  C   UNL d   1       8.855   6.422  -7.885  0.00  0.00     0.137 C 
ATOM     18  N   UNL d   1       9.858   7.489  -8.023  0.00  0.00    -0.344 N 
ATOM     19  C   UNL d   1       9.968   8.016  -9.380  0.00  0.00     0.137 C 
ATOM     20  C   UNL d   1      10.206   6.866 -10.351  0.00  0.00     0.274 C 
BRANCH  18  21
ATOM     21  C   UNL d   1      10.626   7.979  -6.958  0.00  0.00     0.056 A 
ATOM     22  C   UNL d   1      10.847   7.203  -5.790  0.00  0.00     0.019 A 
ATOM     23  C   UNL d   1      11.596   7.701  -4.724  0.00  0.00     0.031 A 
ATOM     24  C   UNL d   1      12.181   8.981  -4.797  0.00  0.00     0.140 A 
ATOM     25  C   UNL d   1      11.992   9.758  -5.959  0.00  0.00     0.031 A 
ATOM     26  F   UNL d   1      12.945   9.435  -3.784  0.00  0.00    -0.204 F 
ATOM     27  C   UNL d   1      11.220   9.267  -7.018  0.00  0.00     0.019 A 
ENDBRANCH  18  21
ENDBRANCH   1  15
TORSDOF 4
