REMARK  8 active torsions:
REMARK  status: ('A' for Active; 'I' for Inactive)
REMARK    1  A    between atoms: C_6  and  C_7 
REMARK    2  A    between atoms: C_10  and  S_11 
REMARK    3  A    between atoms: S_11  and  C_12 
REMARK    4  A    between atoms: C_12  and  C_13 
REMARK    5  A    between atoms: C_13  and  C_14 
REMARK    6  A    between atoms: C_14  and  N_15 
REMARK    7  A    between atoms: C_22  and  C_23 
REMARK    8  A    between atoms: C_23  and  C_24 
ROOT
ATOM      1  C   UNL d   1      10.059   2.859 -22.052  0.00  0.00     0.047 C 
ENDROOT
BRANCH   1   2
ATOM      2  C   UNL d   1       8.556   3.137 -22.265  0.00  0.00     0.067 C 
BRANCH   2   3
ATOM      3  S   UNL d   1       7.556   1.638 -22.542  0.00  0.00    -0.075 SA
BRANCH   3   4
ATOM      4  C   UNL d   1       7.557   0.937 -20.925  0.00  0.00     0.193 A 
ATOM      5  N   UNL d   1       8.644   0.780 -20.172  0.00  0.00    -0.122 NA
ATOM      6  N   UNL d   1       8.214   0.201 -19.008  0.00  0.00    -0.128 NA
ATOM      7  C   UNL d   1       6.892   0.065 -19.140  0.00  0.00     0.167 A 
ATOM      8  N   UNL d   1       6.431   0.482 -20.343  0.00  0.00    -0.289 N 
ATOM      9  C   UNL d   1       5.083   0.476 -20.898  0.00  0.00     0.134 C 
BRANCH   7  10
ATOM     10  C   UNL d   1       6.066  -0.498 -18.077  0.00  0.00     0.037 A 
ATOM     11  C   UNL d   1       6.021   0.055 -16.767  0.00  0.00     0.021 A 
ATOM     12  C   UNL d   1       6.783   1.188 -16.394  0.00  0.00     0.003 A 
ATOM     13  C   UNL d   1       5.179  -0.527 -15.770  0.00  0.00     0.081 A 
ATOM     14  C   UNL d   1       6.695   1.686 -15.082  0.00  0.00     0.015 A 
ATOM     15  C   UNL d   1       5.835   1.040 -14.180  0.00  0.00     0.059 A 
ATOM     16  C   UNL d   1       5.621   1.589 -12.794  0.00  0.00     0.052 C 
ATOM     17  N   UNL d   1       5.092  -0.036 -14.510  0.00  0.00    -0.250 NA
ATOM     18  C   UNL d   1       4.394  -1.638 -16.123  0.00  0.00     0.019 A 
ATOM     19  C   UNL d   1       4.464  -2.209 -17.406  0.00  0.00     0.002 A 
ATOM     20  C   UNL d   1       5.308  -1.647 -18.375  0.00  0.00     0.003 A 
ENDBRANCH   7  10
ENDBRANCH   3   4
ENDBRANCH   2   3
ENDBRANCH   1   2
BRANCH   1  21
ATOM     21  C   UNL d   1      10.924   4.094 -22.313  0.00  0.00     0.251 C 
BRANCH  21  22
ATOM     22  N   UNL d   1      12.313   3.852 -21.909  0.00  0.00     0.138 N 
ATOM     23  C   UNL d   1      12.590   3.972 -20.472  0.00  0.00     0.255 C 
ATOM     24  C   UNL d   1      12.415   5.387 -19.876  0.00  0.00     0.061 C 
ATOM     25  C   UNL d   1      13.571   6.331 -20.164  0.00  0.00    -0.022 A 
ATOM     26  C   UNL d   1      13.963   6.648 -21.493  0.00  0.00    -0.022 A 
ATOM     27  C   UNL d   1      14.257   6.911 -19.075  0.00  0.00     0.022 A 
ATOM     28  C   UNL d   1      13.239   6.061 -22.695  0.00  0.00     0.061 C 
ATOM     29  C   UNL d   1      15.043   7.538 -21.721  0.00  0.00     0.017 A 
ATOM     30  C   UNL d   1      13.286   4.525 -22.766  0.00  0.00     0.255 C 
ATOM     31  C   UNL d   1      15.733   8.121 -20.640  0.00  0.00     0.106 A 
ATOM     32  C   UNL d   1      15.316   7.790 -19.335  0.00  0.00     0.119 A 
ATOM     33  N   UNL d   1      16.800   8.997 -20.569  0.00  0.00    -0.224 NA
ATOM     34  O   UNL d   1      16.122   8.465 -18.439  0.00  0.00    -0.291 OA
ATOM     35  C   UNL d   1      16.975   9.163 -19.250  0.00  0.00     0.167 A 
BRANCH  35  36
ATOM     36  C   UNL d   1      18.039   9.985 -18.599  0.00  0.00     0.175 C 
BRANCH  36  37
ATOM     37  C   UNL d   1      19.282   9.178 -18.197  0.00  0.00     0.406 C 
ATOM     38  F   UNL d   1      20.154   9.995 -17.608  0.00  0.00    -0.170 F 
ATOM     39  F   UNL d   1      18.965   8.209 -17.337  0.00  0.00    -0.170 F 
ATOM     40  F   UNL d   1      19.859   8.641 -19.271  0.00  0.00    -0.170 F 
ENDBRANCH  36  37
ENDBRANCH  35  36
ENDBRANCH  21  22
ENDBRANCH   1  21
TORSDOF 8
