REMARK  6 active torsions:
REMARK  status: ('A' for Active; 'I' for Inactive)
REMARK    1  A    between atoms: C_2  and  C_3 
REMARK    2  A    between atoms: C_3  and  C_4 
REMARK    3  A    between atoms: C_4  and  C_5 
REMARK    4  A    between atoms: C_5  and  C_6 
REMARK    5  A    between atoms: C_6  and  N_7 
REMARK    6  A    between atoms: N_10  and  C_11 
ROOT
ATOM      1  C   UNL d   1       8.736   4.482 -13.138  0.00  0.00     0.003 C 
ENDROOT
BRANCH   1   2
ATOM      2  C   UNL d   1      10.149   4.822 -13.667  0.00  0.00     0.008 C 
BRANCH   2   3
ATOM      3  C   UNL d   1      10.496   4.255 -15.067  0.00  0.00     0.060 A 
ATOM      4  C   UNL d   1      10.428   2.713 -15.065  0.00  0.00     0.008 C 
ATOM      5  C   UNL d   1      11.919   4.697 -15.472  0.00  0.00     0.172 A 
ATOM      6  C   UNL d   1      11.854   5.472 -16.714  0.00  0.00     0.031 A 
ATOM      7  O   UNL d   1      12.925   4.415 -14.826  0.00  0.00    -0.291 OA
ATOM      8  C   UNL d   1      10.532   5.565 -17.130  0.00  0.00    -0.018 A 
ATOM      9  C   UNL d   1      12.893   6.071 -17.455  0.00  0.00     0.003 A 
ATOM     10  C   UNL d   1       9.596   4.860 -16.187  0.00  0.00     0.034 A 
ATOM     11  C   UNL d   1      10.180   6.255 -18.300  0.00  0.00     0.007 A 
ATOM     12  C   UNL d   1      11.207   6.866 -19.055  0.00  0.00     0.057 A 
ATOM     13 CL   UNL d   1      10.806   7.744 -20.482  0.00  0.00    -0.082 Cl
ATOM     14  C   UNL d   1      12.556   6.771 -18.634  0.00  0.00     0.011 A 
ENDBRANCH   2   3
ENDBRANCH   1   2
BRANCH   1  15
ATOM     15  C   UNL d   1       8.337   5.303 -11.899  0.00  0.00     0.035 C 
BRANCH  15  16
ATOM     16  C   UNL d   1       9.216   5.007 -10.676  0.00  0.00     0.250 C 
BRANCH  16  17
ATOM     17  N   UNL d   1       9.019   6.006  -9.635  0.00  0.00     0.141 N 
ATOM     18  C   UNL d   1       9.975   7.115  -9.796  0.00  0.00     0.274 C 
ATOM     19  C   UNL d   1       9.746   8.206  -8.728  0.00  0.00     0.138 C 
ATOM     20  N   UNL d   1       9.798   7.604  -7.397  0.00  0.00    -0.330 N 
ATOM     21  C   UNL d   1       8.898   6.466  -7.226  0.00  0.00     0.138 C 
ATOM     22  C   UNL d   1       9.181   5.410  -8.311  0.00  0.00     0.274 C 
BRANCH  20  23
ATOM     23  C   UNL d   1      10.632   8.097  -6.376  0.00  0.00     0.140 A 
ATOM     24  N   UNL d   1      11.047   9.380  -6.496  0.00  0.00    -0.227 NA
ATOM     25  C   UNL d   1      11.857   9.892  -5.547  0.00  0.00     0.101 A 
ATOM     26  C   UNL d   1      12.284   9.175  -4.417  0.00  0.00     0.021 A 
ATOM     27  C   UNL d   1      11.861   7.844  -4.280  0.00  0.00     0.005 A 
ATOM     28  C   UNL d   1      11.035   7.293  -5.282  0.00  0.00     0.037 A 
ENDBRANCH  20  23
ENDBRANCH  16  17
ENDBRANCH  15  16
ENDBRANCH   1  15
TORSDOF 6
