REMARK  4 active torsions:
REMARK  status: ('A' for Active; 'I' for Inactive)
REMARK    1  A    between atoms: C_2  and  C_3 
REMARK    2  A    between atoms: C_3  and  N_4 
REMARK    3  A    between atoms: N_7  and  C_8 
REMARK    4  A    between atoms: C_12  and  S_13 
ROOT
ATOM      1  C   UNL d   1       8.068   3.104 -14.246  0.00  0.00     0.057 A 
ATOM      2  C   UNL d   1       7.294   4.061 -13.546  0.00  0.00     0.017 A 
ATOM      3  C   UNL d   1       6.021   3.732 -13.042  0.00  0.00     0.002 A 
ATOM      4  C   UNL d   1       5.501   2.442 -13.232  0.00  0.00     0.011 A 
ATOM      5  C   UNL d   1       6.256   1.490 -13.942  0.00  0.00     0.085 A 
ATOM      6  C   UNL d   1       7.532   1.809 -14.445  0.00  0.00     0.028 A 
ENDROOT
BRANCH   1   7
ATOM      7  N   UNL d   1       9.341   3.445 -14.736  0.00  0.00    -0.344 N 
ATOM      8  C   UNL d   1      10.441   2.493 -14.780  0.00  0.00     0.137 C 
ATOM      9  C   UNL d   1      11.032   2.457 -16.197  0.00  0.00     0.274 C 
ATOM     10  N   UNL d   1      11.455   3.800 -16.625  0.00  0.00     0.141 N 
ATOM     11  C   UNL d   1      10.281   4.687 -16.632  0.00  0.00     0.274 C 
ATOM     12  C   UNL d   1       9.660   4.780 -15.224  0.00  0.00     0.137 C 
BRANCH  10  13
ATOM     13  C   UNL d   1      12.022   3.736 -17.972  0.00  0.00     0.250 C 
BRANCH  13  14
ATOM     14  C   UNL d   1      13.455   3.178 -17.951  0.00  0.00     0.035 C 
ATOM     15  C   UNL d   1      14.069   3.111 -19.351  0.00  0.00     0.002 C 
ENDBRANCH  13  14
ENDBRANCH  10  13
ENDBRANCH   1   7
BRANCH   5  16
ATOM     16  S   UNL d   1       5.636  -0.168 -14.166  0.00  0.00     0.191 S 
ATOM     17  C   UNL d   1       5.552  -0.379 -15.986  0.00  0.00     0.145 C 
ATOM     18  O   UNL d   1       6.661  -1.077 -13.640  0.00  0.00    -0.222 OA
ATOM     19  O   UNL d   1       4.263  -0.229 -13.638  0.00  0.00    -0.222 OA
ENDBRANCH   5  16
TORSDOF 4
