REMARK  4 active torsions:
REMARK  status: ('A' for Active; 'I' for Inactive)
REMARK    1  A    between atoms: C_2  and  N_3 
REMARK    2  A    between atoms: C_7  and  C_8 
REMARK    3  A    between atoms: C_14  and  O_15 
REMARK    4  A    between atoms: O_15  and  C_16 
ROOT
ATOM      1  C   UNL d   1       8.121   2.722 -14.278  0.00  0.00     0.038 C 
ATOM      2  C   UNL d   1       8.317   3.878 -13.541  0.00  0.00     0.100 C 
ATOM      3  N   UNL d   1       9.371   4.579 -13.993  0.00  0.00    -0.244 NA
ATOM      4  C   UNL d   1      10.070   3.835 -14.902  0.00  0.00     0.082 A 
ATOM      5  C   UNL d   1      11.306   4.034 -15.555  0.00  0.00     0.021 A 
ATOM      6  C   UNL d   1      11.800   3.042 -16.421  0.00  0.00     0.026 A 
ATOM      7  C   UNL d   1      11.064   1.865 -16.656  0.00  0.00     0.102 A 
ATOM      8  C   UNL d   1       9.817   1.690 -16.008  0.00  0.00     0.026 A 
ATOM      9  C   UNL d   1       9.300   2.653 -15.105  0.00  0.00     0.023 A 
ENDROOT
BRANCH   1  10
ATOM     10  C   UNL d   1       7.005   1.761 -14.238  0.00  0.00     0.082 A 
ATOM     11  N   UNL d   1       5.835   1.898 -13.442  0.00  0.00    -0.309 N 
ATOM     12  C   UNL d   1       5.133   0.792 -13.663  0.00  0.00     0.179 A 
ATOM     13  N   UNL d   1       5.657  -0.066 -14.523  0.00  0.00    -0.223 NA
ATOM     14  C   UNL d   1       6.851   0.541 -14.890  0.00  0.00     0.118 A 
BRANCH  11  15
ATOM     15  C   UNL d   1       5.510   2.999 -12.541  0.00  0.00     0.108 C 
ATOM     16  C   UNL d   1       5.282   4.372 -13.246  0.00  0.00     0.027 C 
ENDBRANCH  11  15
ENDBRANCH   1  10
BRANCH   7  17
ATOM     17  O   UNL d   1      11.624   0.935 -17.497  0.00  0.00    -0.253 OA
BRANCH  17  18
ATOM     18  C   UNL d   1      10.874  -0.042 -18.078  0.00  0.00     0.530 C 
ATOM     19  F   UNL d   1      11.682  -0.804 -18.852  0.00  0.00    -0.144 F 
ATOM     20  F   UNL d   1      10.307  -0.882 -17.175  0.00  0.00    -0.144 F 
ATOM     21  F   UNL d   1       9.911   0.470 -18.885  0.00  0.00    -0.144 F 
ENDBRANCH  17  18
ENDBRANCH   7  17
TORSDOF 4
