REMARK  4 active torsions:
REMARK  status: ('A' for Active; 'I' for Inactive)
REMARK    1  A    between atoms: C_8  and  C_9 
REMARK    2  A    between atoms: C_9  and  C_10 
REMARK    3  A    between atoms: C_10  and  N_11 
REMARK    4  A    between atoms: N_14  and  C_15 
ROOT
ATOM      1  N   UNL d   1       9.659   5.851  -9.617  0.00  0.00     0.141 N 
ATOM      2  C   UNL d   1       9.353   5.612  -8.213  0.00  0.00     0.274 C 
ATOM      3  C   UNL d   1      10.557   5.991  -7.348  0.00  0.00     0.138 C 
ATOM      4  N   UNL d   1      10.976   7.359  -7.577  0.00  0.00    -0.329 N 
ATOM      5  C   UNL d   1      11.155   7.704  -8.982  0.00  0.00     0.138 C 
ATOM      6  C   UNL d   1       9.928   7.280  -9.807  0.00  0.00     0.274 C 
ENDROOT
BRANCH   1   7
ATOM      7  C   UNL d   1       8.511   5.400 -10.389  0.00  0.00     0.255 C 
BRANCH   7   8
ATOM      8  C   UNL d   1       8.834   5.454 -11.888  0.00  0.00     0.063 C 
BRANCH   8   9
ATOM      9  C   UNL d   1       7.994   4.471 -12.686  0.00  0.00    -0.003 A 
ATOM     10  C   UNL d   1       8.582   3.611 -13.651  0.00  0.00     0.076 A 
ATOM     11  N   UNL d   1       9.982   3.654 -13.895  0.00  0.00    -0.212 NA
ATOM     12  C   UNL d   1       7.780   2.677 -14.356  0.00  0.00    -0.005 A 
ATOM     13  C   UNL d   1      10.594   3.084 -14.939  0.00  0.00     0.256 C 
ATOM     14  C   UNL d   1       9.718   2.381 -15.978  0.00  0.00     0.094 C 
ATOM     15  O   UNL d   1      11.811   3.159 -15.100  0.00  0.00    -0.270 OA
ATOM     16  C   UNL d   1       8.451   1.739 -15.363  0.00  0.00     0.033 C 
ATOM     17  C   UNL d   1       7.497   1.288 -16.486  0.00  0.00     0.005 C 
ATOM     18  C   UNL d   1       6.398   2.596 -14.058  0.00  0.00    -0.003 A 
ATOM     19  C   UNL d   1       5.814   3.467 -13.124  0.00  0.00    -0.001 A 
ATOM     20  C   UNL d   1       6.605   4.405 -12.440  0.00  0.00    -0.003 A 
ENDBRANCH   8   9
ENDBRANCH   7   8
ENDBRANCH   1   7
BRANCH   4  21
ATOM     21  C   UNL d   1      11.071   8.285  -6.516  0.00  0.00     0.148 A 
ATOM     22  C   UNL d   1      11.460   7.921  -5.156  0.00  0.00     0.042 A 
ATOM     23  C   UNL d   1      11.496   9.096  -4.347  0.00  0.00     0.050 A 
ATOM     24  C   UNL d   1      11.855   6.717  -4.514  0.00  0.00     0.004 A 
ATOM     25  S   UNL d   1      11.058  10.434  -5.357  0.00  0.00     0.015 SA
ATOM     26  C   UNL d   1      11.859   9.078  -2.981  0.00  0.00     0.008 A 
ATOM     27  N   UNL d   1      10.860   9.555  -6.758  0.00  0.00    -0.192 NA
ATOM     28  C   UNL d   1      12.224   7.862  -2.377  0.00  0.00     0.001 A 
ATOM     29  C   UNL d   1      12.222   6.689  -3.153  0.00  0.00     0.000 A 
ENDBRANCH   4  21
TORSDOF 4
