REMARK  4 active torsions:
REMARK  status: ('A' for Active; 'I' for Inactive)
REMARK    1  A    between atoms: C_4  and  C_5 
REMARK    2  A    between atoms: C_9  and  C_10 
REMARK    3  A    between atoms: C_10  and  N_11 
REMARK    4  A    between atoms: N_14  and  C_15 
ROOT
ATOM      1  N   UNL d   1       9.432   4.641 -13.468  0.00  0.00     0.145 N 
ATOM      2  C   UNL d   1      10.156   4.824 -14.737  0.00  0.00     0.275 C 
ATOM      3  C   UNL d   1      10.372   3.474 -15.451  0.00  0.00     0.137 C 
ATOM      4  N   UNL d   1       9.093   2.808 -15.644  0.00  0.00    -0.343 N 
ATOM      5  C   UNL d   1       8.288   2.703 -14.442  0.00  0.00     0.137 C 
ATOM      6  C   UNL d   1       8.109   4.079 -13.809  0.00  0.00     0.275 C 
ENDROOT
BRANCH   1   7
ATOM      7  C   UNL d   1       9.262   5.918 -12.773  0.00  0.00     0.277 C 
BRANCH   7   8
ATOM      8  C   UNL d   1       9.184   5.812 -11.250  0.00  0.00     0.011 A 
ATOM      9  C   UNL d   1       8.456   4.793 -10.604  0.00  0.00    -0.002 A 
ATOM     10  C   UNL d   1       8.410   4.716  -9.209  0.00  0.00    -0.000 A 
ATOM     11  C   UNL d   1       9.048   5.669  -8.414  0.00  0.00    -0.000 A 
ATOM     12  C   UNL d   1       9.790   6.687  -9.034  0.00  0.00    -0.000 A 
ATOM     13  C   UNL d   1       9.860   6.763 -10.443  0.00  0.00    -0.002 A 
BRANCH  12  14
ATOM     14  C   UNL d   1      10.484   7.647  -8.183  0.00  0.00    -0.000 A 
ATOM     15  C   UNL d   1       9.843   8.212  -7.055  0.00  0.00    -0.000 A 
ATOM     16  C   UNL d   1      10.525   9.126  -6.231  0.00  0.00    -0.000 A 
ATOM     17  C   UNL d   1      11.855   9.464  -6.523  0.00  0.00     0.000 A 
ATOM     18  C   UNL d   1      12.495   8.884  -7.634  0.00  0.00    -0.000 A 
ATOM     19  C   UNL d   1      11.818   7.998  -8.468  0.00  0.00    -0.000 A 
ENDBRANCH  12  14
ENDBRANCH   7   8
ENDBRANCH   1   7
BRANCH   4  20
ATOM     20  C   UNL d   1       8.625   2.340 -16.897  0.00  0.00     0.081 A 
ATOM     21  C   UNL d   1       7.652   1.323 -16.996  0.00  0.00     0.135 A 
ATOM     22  C   UNL d   1       7.190   0.865 -18.218  0.00  0.00     0.121 A 
ATOM     23  O   UNL d   1       7.030   0.622 -16.011  0.00  0.00    -0.298 OA
ATOM     24  C   UNL d   1       7.681   1.379 -19.427  0.00  0.00     0.026 A 
ATOM     25  O   UNL d   1       6.260  -0.104 -18.024  0.00  0.00    -0.299 OA
ATOM     26  C   UNL d   1       8.652   2.397 -19.365  0.00  0.00     0.004 A 
ATOM     27  C   UNL d   1       9.107   2.884 -18.115  0.00  0.00     0.019 A 
ATOM     28  C   UNL d   1       6.135  -0.247 -16.633  0.00  0.00     0.304 A 
ENDBRANCH   4  20
TORSDOF 4
