REMARK  9 active torsions:
REMARK  status: ('A' for Active; 'I' for Inactive)
REMARK    1  A    between atoms: C_5  and  C_6 
REMARK    2  A    between atoms: C_6  and  C_7 
REMARK    3  A    between atoms: C_7  and  C_8 
REMARK    4  A    between atoms: C_8  and  N_9 
REMARK    5  A    between atoms: N_9  and  C_10 
REMARK    6  A    between atoms: C_10  and  C_11 
REMARK    7  A    between atoms: C_11  and  C_12 
REMARK    8  A    between atoms: C_12  and  O_13 
REMARK    9  A    between atoms: O_13  and  C_14 
ROOT
ATOM      1  N   UNL d   1       8.688   5.538  -9.051  0.00  0.00     0.339 N 
ENDROOT
BRANCH   1   2
ATOM      2  C   UNL d   1       9.474   6.736  -8.844  0.00  0.00     0.290 C 
BRANCH   2   3
ATOM      3  C   UNL d   1       9.809   6.869  -7.359  0.00  0.00     0.043 C 
BRANCH   3   4
ATOM      4  C   UNL d   1      10.636   8.122  -7.055  0.00  0.00     0.029 C 
BRANCH   4   5
ATOM      5  C   UNL d   1      11.159   8.163  -5.631  0.00  0.00    -0.022 A 
ATOM      6  C   UNL d   1      11.453   6.968  -4.940  0.00  0.00    -0.005 A 
ATOM      7  C   UNL d   1      11.937   7.010  -3.619  0.00  0.00    -0.005 A 
ATOM      8  C   UNL d   1      12.140   8.250  -2.986  0.00  0.00    -0.022 A 
ATOM      9  C   UNL d   1      12.657   8.296  -1.569  0.00  0.00     0.031 C 
ATOM     10  C   UNL d   1      11.852   9.443  -3.670  0.00  0.00    -0.005 A 
ATOM     11  C   UNL d   1      11.368   9.403  -4.994  0.00  0.00    -0.005 A 
ENDBRANCH   4   5
ENDBRANCH   3   4
ENDBRANCH   2   3
ENDBRANCH   1   2
BRANCH   1  12
ATOM     12  C   UNL d   1       8.259   5.445 -10.432  0.00  0.00     0.293 C 
BRANCH  12  13
ATOM     13  C   UNL d   1       9.438   5.191 -11.379  0.00  0.00     0.071 C 
BRANCH  13  14
ATOM     14  C   UNL d   1       9.033   5.322 -12.855  0.00  0.00     0.151 C 
BRANCH  14  15
ATOM     15  O   UNL d   1      10.203   5.175 -13.649  0.00  0.00    -0.331 OA
BRANCH  15  16
ATOM     16  C   UNL d   1      10.462   3.980 -14.276  0.00  0.00     0.094 A 
ATOM     17  C   UNL d   1       9.684   2.814 -14.102  0.00  0.00     0.024 A 
ATOM     18  C   UNL d   1       9.978   1.646 -14.839  0.00  0.00     0.002 A 
ATOM     19  C   UNL d   1      11.062   1.634 -15.742  0.00  0.00     0.000 A 
ATOM     20  C   UNL d   1      11.862   2.782 -15.896  0.00  0.00     0.002 A 
ATOM     21  C   UNL d   1      11.563   3.947 -15.161  0.00  0.00     0.024 A 
ENDBRANCH  15  16
ENDBRANCH  14  15
ENDBRANCH  13  14
ENDBRANCH  12  13
ENDBRANCH   1  12
TORSDOF 9
