REMARK  6 active torsions:
REMARK  status: ('A' for Active; 'I' for Inactive)
REMARK    1  A    between atoms: C_2  and  O_3 
REMARK    2  A    between atoms: O_3  and  C_4 
REMARK       I    between atoms: C_4  and  N_6 
REMARK    3  A    between atoms: N_6  and  C_7 
REMARK    4  A    between atoms: C_10  and  C_11 
REMARK    5  A    between atoms: C_11  and  C_12 
REMARK    6  A    between atoms: C_12  and  N_13 
ROOT
ATOM      1  C   UNL d   1      10.856   8.300  -6.793  0.00  0.00     0.109 C 
ATOM      2  C   UNL d   1      10.042   7.051  -6.397  0.00  0.00     0.025 C 
ATOM      3  C   UNL d   1       9.996   6.044  -7.552  0.00  0.00     0.002 C 
ATOM      4  C   UNL d   1       9.384   6.652  -8.812  0.00  0.00     0.002 C 
ATOM      5  C   UNL d   1      10.185   7.901  -9.229  0.00  0.00     0.002 C 
ATOM      6  C   UNL d   1      10.276   8.920  -8.079  0.00  0.00     0.025 C 
ENDROOT
BRANCH   4   7
ATOM      7  C   UNL d   1       9.299   5.601  -9.931  0.00  0.00     0.035 C 
BRANCH   7   8
ATOM      8  C   UNL d   1       8.132   5.835 -10.908  0.00  0.00     0.251 C 
BRANCH   8   9
ATOM      9  N   UNL d   1       7.934   4.688 -11.791  0.00  0.00     0.142 N 
ATOM     10  C   UNL d   1       9.035   4.564 -12.746  0.00  0.00     0.276 C 
ATOM     11  C   UNL d   1       8.840   3.469 -13.775  0.00  0.00     0.007 A 
ATOM     12  C   UNL d   1       7.544   2.990 -14.059  0.00  0.00    -0.022 A 
ATOM     13  C   UNL d   1       9.954   2.948 -14.467  0.00  0.00    -0.003 A 
ATOM     14  C   UNL d   1       6.356   3.532 -13.280  0.00  0.00     0.061 C 
ATOM     15  C   UNL d   1       7.364   1.988 -15.037  0.00  0.00    -0.004 A 
ATOM     16  C   UNL d   1       6.682   4.839 -12.530  0.00  0.00     0.255 C 
ATOM     17  C   UNL d   1       8.479   1.475 -15.732  0.00  0.00    -0.000 A 
ATOM     18  C   UNL d   1       9.771   1.952 -15.444  0.00  0.00    -0.000 A 
ENDBRANCH   8   9
ENDBRANCH   7   8
ENDBRANCH   4   7
BRANCH   1  19
ATOM     19  N   UNL d   1      10.860   9.298  -5.721  0.00  0.00    -0.214 NA
ATOM     20  C   UNL d   1      11.501   9.175  -4.495  0.00  0.00     0.384 C 
ATOM     21  O   UNL d   1      11.419   9.986  -3.581  0.00  0.00    -0.236 OA
BRANCH  20  22
ATOM     22  O   UNL d   1      12.213   8.041  -4.432  0.00  0.00    -0.284 OA
BRANCH  22  23
ATOM     23  C   UNL d   1      12.891   7.680  -3.238  0.00  0.00     0.154 C 
ATOM     24  C   UNL d   1      12.061   6.698  -2.412  0.00  0.00     0.035 C 
ENDBRANCH  22  23
ENDBRANCH  20  22
ENDBRANCH   1  19
TORSDOF 6
