REMARK  7 active torsions:
REMARK  status: ('A' for Active; 'I' for Inactive)
REMARK    1  A    between atoms: C_2  and  C_3 
REMARK       I    between atoms: C_2  and  N_13 
REMARK    2  A    between atoms: C_3  and  C_4 
REMARK    3  A    between atoms: N_13  and  C_14 
REMARK    4  A    between atoms: C_17  and  C_18 
REMARK    5  A    between atoms: C_18  and  C_19 
REMARK    6  A    between atoms: C_19  and  N_20 
REMARK    7  A    between atoms: N_23  and  C_24 
ROOT
ATOM      1  C   UNL d   1       6.753   2.519 -14.726  0.00  0.00     0.106 C 
ATOM      2  C   UNL d   1       6.161   2.374 -13.325  0.00  0.00     0.024 C 
ATOM      3  C   UNL d   1       6.497   3.635 -12.468  0.00  0.00     0.002 C 
ATOM      4  C   UNL d   1       8.003   4.036 -12.482  0.00  0.00     0.002 C 
ATOM      5  C   UNL d   1       8.495   4.193 -13.922  0.00  0.00     0.002 C 
ATOM      6  C   UNL d   1       8.249   2.917 -14.712  0.00  0.00     0.024 C 
ENDROOT
BRANCH   4   7
ATOM      7  C   UNL d   1       8.282   5.301 -11.662  0.00  0.00     0.035 C 
BRANCH   7   8
ATOM      8  C   UNL d   1       8.828   4.959 -10.255  0.00  0.00     0.250 C 
BRANCH   8   9
ATOM      9  N   UNL d   1       8.837   6.151  -9.428  0.00  0.00     0.141 N 
ATOM     10  C   UNL d   1       8.884   5.801  -7.997  0.00  0.00     0.274 C 
ATOM     11  C   UNL d   1       8.792   7.057  -7.102  0.00  0.00     0.138 C 
ATOM     12  N   UNL d   1       9.860   7.950  -7.473  0.00  0.00    -0.330 N 
ATOM     13  C   UNL d   1       9.895   8.350  -8.899  0.00  0.00     0.138 C 
ATOM     14  C   UNL d   1       9.939   7.072  -9.769  0.00  0.00     0.274 C 
BRANCH  12  15
ATOM     15  C   UNL d   1      10.750   8.478  -6.540  0.00  0.00     0.138 A 
ATOM     16  C   UNL d   1      11.100   7.830  -5.339  0.00  0.00     0.036 A 
ATOM     17  C   UNL d   1      12.042   8.405  -4.486  0.00  0.00     0.095 A 
ATOM     18  C   UNL d   1      10.759   6.484  -4.803  0.00  0.00     0.064 C 
ATOM     19  C   UNL d   1      12.657   9.580  -4.821  0.00  0.00     0.045 A 
ATOM     20  O   UNL d   1      12.349   7.666  -3.385  0.00  0.00    -0.331 OA
ATOM     21  C   UNL d   1      12.247  10.184  -6.021  0.00  0.00     0.103 A 
ATOM     22  N   UNL d   1      11.324   9.672  -6.837  0.00  0.00    -0.228 NA
ATOM     23  C   UNL d   1      11.519   6.507  -3.436  0.00  0.00     0.154 C 
ENDBRANCH  12  15
ENDBRANCH   8   9
ENDBRANCH   7   8
ENDBRANCH   4   7
BRANCH   1  24
ATOM     24  N   UNL d   1       6.564   1.263 -15.466  0.00  0.00    -0.240 NA
ATOM     25  C   UNL d   1       6.797   1.097 -16.777  0.00  0.00     0.256 C 
ATOM     26  O   UNL d   1       7.263   1.984 -17.500  0.00  0.00    -0.270 OA
BRANCH  25  27
ATOM     27  C   UNL d   1       6.409  -0.255 -17.375  0.00  0.00     0.116 C 
BRANCH  27  28
ATOM     28  C   UNL d   1       6.517  -0.261 -18.895  0.00  0.00    -0.011 A 
ATOM     29  C   UNL d   1       5.641   0.539 -19.668  0.00  0.00     0.022 A 
ATOM     30  C   UNL d   1       5.794   0.528 -21.061  0.00  0.00     0.119 A 
ATOM     31  C   UNL d   1       6.760  -0.243 -21.675  0.00  0.00     0.119 A 
ATOM     32  O   UNL d   1       5.092   1.215 -21.996  0.00  0.00    -0.300 OA
ATOM     33  C   UNL d   1       7.646  -1.043 -20.935  0.00  0.00     0.026 A 
ATOM     34  O   UNL d   1       6.680  -0.079 -23.018  0.00  0.00    -0.300 OA
ATOM     35  C   UNL d   1       7.519  -1.042 -19.528  0.00  0.00    -0.002 A 
ATOM     36  C   UNL d   1       5.626   0.825 -23.233  0.00  0.00     0.304 A 
ENDBRANCH  27  28
ENDBRANCH  25  27
ENDBRANCH   1  24
TORSDOF 7
