REMARK  4 active torsions:
REMARK  status: ('A' for Active; 'I' for Inactive)
REMARK    1  A    between atoms: O_2  and  C_3 
REMARK    2  A    between atoms: C_9  and  C_10 
REMARK    3  A    between atoms: N_21  and  S_22 
REMARK    4  A    between atoms: S_22  and  C_25 
ROOT
ATOM      1  C   UNL d   1       6.185   1.043 -14.155  0.00  0.00     0.094 A 
ATOM      2  C   UNL d   1       5.457   1.821 -13.230  0.00  0.00     0.026 A 
ATOM      3  C   UNL d   1       5.904   3.086 -12.849  0.00  0.00     0.020 A 
ATOM      4  C   UNL d   1       7.103   3.588 -13.386  0.00  0.00     0.075 A 
ATOM      5  C   UNL d   1       7.898   2.834 -14.313  0.00  0.00     0.022 A 
ATOM      6  C   UNL d   1       7.402   1.542 -14.670  0.00  0.00     0.026 A 
ATOM      7  C   UNL d   1       9.059   3.639 -14.660  0.00  0.00     0.039 A 
ATOM      8  C   UNL d   1       8.920   4.798 -13.934  0.00  0.00     0.093 A 
ATOM      9  N   UNL d   1       7.766   4.782 -13.177  0.00  0.00    -0.231 N 
ENDROOT
BRANCH   7  10
ATOM     10  C   UNL d   1      10.120   3.244 -15.604  0.00  0.00     0.114 A 
ATOM     11  C   UNL d   1      11.203   3.966 -16.082  0.00  0.00     0.077 A 
ATOM     12  N   UNL d   1      11.830   3.090 -16.957  0.00  0.00    -0.141 N 
ATOM     13  C   UNL d   1      11.693   5.364 -15.823  0.00  0.00     0.053 C 
ATOM     14  C   UNL d   1      11.206   1.908 -17.015  0.00  0.00     0.735 A 
ATOM     15  C   UNL d   1      12.958   3.324 -17.721  0.00  0.00     0.099 A 
ATOM     16  N   UNL d   1      10.162   1.979 -16.200  0.00  0.00    -0.059 NA
ATOM     17  N   UNL d   1      11.571   0.869 -17.769  0.00  0.00    -0.059 NA
ATOM     18  C   UNL d   1      12.659   1.077 -18.510  0.00  0.00     0.119 A 
ATOM     19  C   UNL d   1      13.393   2.294 -18.529  0.00  0.00     0.041 A 
ENDBRANCH   7  10
BRANCH   9  20
ATOM     20  S   UNL d   1       7.321   6.068 -12.125  0.00  0.00     0.271 S 
ATOM     21  O   UNL d   1       7.685   7.306 -12.838  0.00  0.00    -0.200 OA
ATOM     22  O   UNL d   1       5.934   5.827 -11.691  0.00  0.00    -0.200 OA
BRANCH  20  23
ATOM     23  C   UNL d   1       8.439   5.875 -10.762  0.00  0.00     0.104 A 
ATOM     24  C   UNL d   1       8.277   4.791  -9.883  0.00  0.00     0.013 A 
ATOM     25  C   UNL d   1       9.142   4.667  -8.780  0.00  0.00     0.001 A 
ATOM     26  C   UNL d   1      10.152   5.627  -8.556  0.00  0.00     0.000 A 
ATOM     27  C   UNL d   1      10.316   6.702  -9.449  0.00  0.00     0.001 A 
ATOM     28  C   UNL d   1       9.463   6.824 -10.561  0.00  0.00     0.013 A 
ENDBRANCH  20  23
ENDBRANCH   9  20
BRANCH   1  29
ATOM     29  O   UNL d   1       5.746  -0.196 -14.565  0.00  0.00    -0.328 OA
ATOM     30  C   UNL d   1       4.346  -0.441 -14.536  0.00  0.00     0.181 C 
ENDBRANCH   1  29
TORSDOF 4
