REMARK  3 active torsions:
REMARK  status: ('A' for Active; 'I' for Inactive)
REMARK    1  A    between atoms: C_4  and  C_5 
REMARK    2  A    between atoms: C_5  and  C_6 
REMARK    3  A    between atoms: C_6  and  N_7 
ROOT
ATOM      1  C   UNL d   1      11.220   7.707  -6.782  0.00  0.00     0.062 C 
ENDROOT
BRANCH   1   2
ATOM      2  C   UNL d   1      11.450   8.008  -5.309  0.00  0.00    -0.020 A 
ATOM      3  C   UNL d   1      11.444   9.334  -4.828  0.00  0.00    -0.004 A 
ATOM      4  C   UNL d   1      11.669   9.586  -3.461  0.00  0.00    -0.000 A 
ATOM      5  C   UNL d   1      11.911   8.517  -2.572  0.00  0.00    -0.000 A 
ATOM      6  C   UNL d   1      11.917   7.195  -3.047  0.00  0.00    -0.000 A 
ATOM      7  C   UNL d   1      11.696   6.943  -4.416  0.00  0.00    -0.004 A 
ENDBRANCH   1   2
BRANCH   1   8
ATOM      8  C   UNL d   1       9.967   6.848  -7.028  0.00  0.00     0.255 C 
BRANCH   8   9
ATOM      9  N   UNL d   1       9.938   6.341  -8.397  0.00  0.00     0.137 N 
ATOM     10  C   UNL d   1       9.828   7.397  -9.396  0.00  0.00     0.250 C 
ATOM     11  C   UNL d   1       9.403   6.654 -10.658  0.00  0.00     0.037 C 
ATOM     12  C   UNL d   1       8.697   5.402 -10.150  0.00  0.00     0.037 C 
ATOM     13  C   UNL d   1       8.761   5.516  -8.629  0.00  0.00     0.250 C 
ENDBRANCH   8   9
ENDBRANCH   1   8
TORSDOF 3
