REMARK  3 active torsions:
REMARK  status: ('A' for Active; 'I' for Inactive)
REMARK    1  A    between atoms: C_4  and  C_5 
REMARK    2  A    between atoms: C_5  and  C_6 
REMARK    3  A    between atoms: C_6  and  N_7 
ROOT
ATOM      1  N   UNL d   1       9.012   0.754 -15.719  0.00  0.00     0.138 N 
ATOM      2  C   UNL d   1       8.165   1.007 -16.887  0.00  0.00     0.255 C 
ATOM      3  C   UNL d   1       7.649  -0.330 -17.441  0.00  0.00     0.061 C 
ATOM      4  C   UNL d   1       7.139  -0.199 -18.868  0.00  0.00    -0.024 A 
ATOM      5  C   UNL d   1       5.787   0.156 -19.075  0.00  0.00    -0.004 A 
ATOM      6  C   UNL d   1       5.276   0.299 -20.378  0.00  0.00    -0.000 A 
ATOM      7  C   UNL d   1       6.115   0.091 -21.486  0.00  0.00    -0.000 A 
ATOM      8  C   UNL d   1       7.463  -0.261 -21.291  0.00  0.00    -0.004 A 
ATOM      9  C   UNL d   1       7.990  -0.410 -19.988  0.00  0.00    -0.020 A 
ATOM     10  C   UNL d   1       9.463  -0.786 -19.841  0.00  0.00     0.071 C 
ATOM     11  C   UNL d   1      10.335   0.400 -19.581  0.00  0.00     0.059 A 
ATOM     12  N   UNL d   1      10.563   1.332 -20.578  0.00  0.00    -0.250 NA
ATOM     13  C   UNL d   1      11.391   2.342 -20.139  0.00  0.00     0.081 A 
ATOM     14  C   UNL d   1      11.902   3.488 -20.775  0.00  0.00     0.019 A 
ATOM     15  C   UNL d   1      12.746   4.359 -20.058  0.00  0.00     0.002 A 
ATOM     16  C   UNL d   1      13.066   4.071 -18.718  0.00  0.00     0.000 A 
ATOM     17  C   UNL d   1      12.548   2.917 -18.093  0.00  0.00     0.001 A 
ATOM     18  C   UNL d   1      11.696   2.018 -18.785  0.00  0.00     0.015 A 
ATOM     19  C   UNL d   1      11.018   0.788 -18.450  0.00  0.00    -0.005 A 
ATOM     20  C   UNL d   1      11.069   0.092 -17.116  0.00  0.00     0.063 C 
ATOM     21  C   UNL d   1      10.452   0.924 -15.967  0.00  0.00     0.255 C 
ENDROOT
BRANCH   1  22
ATOM     22  C   UNL d   1       8.583   1.535 -14.555  0.00  0.00     0.255 C 
BRANCH  22  23
ATOM     23  C   UNL d   1       8.960   3.028 -14.662  0.00  0.00     0.062 C 
BRANCH  23  24
ATOM     24  C   UNL d   1       8.506   3.851 -13.475  0.00  0.00    -0.020 A 
ATOM     25  C   UNL d   1       7.159   4.253 -13.354  0.00  0.00    -0.004 A 
ATOM     26  C   UNL d   1       6.764   5.035 -12.252  0.00  0.00    -0.000 A 
ATOM     27  C   UNL d   1       7.708   5.407 -11.275  0.00  0.00    -0.000 A 
ATOM     28  C   UNL d   1       9.052   5.001 -11.395  0.00  0.00    -0.000 A 
ATOM     29  C   UNL d   1       9.448   4.222 -12.496  0.00  0.00    -0.004 A 
ENDBRANCH  23  24
ENDBRANCH  22  23
ENDBRANCH   1  22
TORSDOF 3
