REMARK  3 active torsions:
REMARK  status: ('A' for Active; 'I' for Inactive)
REMARK    1  A    between atoms: N_12  and  C_13 
REMARK    2  A    between atoms: C_13  and  C_14 
REMARK    3  A    between atoms: C_14  and  C_15 
ROOT
ATOM      1  O   UNL d   1       5.991  -0.275 -16.344  0.00  0.00    -0.190 OA
ATOM      2  C   UNL d   1       6.902   0.650 -15.926  0.00  0.00     0.131 A 
ATOM      3  C   UNL d   1       8.136   0.765 -16.593  0.00  0.00     0.027 A 
ATOM      4  C   UNL d   1       9.070   1.735 -16.181  0.00  0.00    -0.002 A 
ATOM      5  C   UNL d   1       8.774   2.601 -15.107  0.00  0.00    -0.024 A 
ATOM      6  C   UNL d   1       7.528   2.483 -14.440  0.00  0.00     0.005 A 
ATOM      7  C   UNL d   1       6.609   1.498 -14.845  0.00  0.00     0.025 A 
ATOM      8  C   UNL d   1       7.144   3.400 -13.289  0.00  0.00     0.169 C 
ATOM      9  O   UNL d   1       6.205   4.373 -13.718  0.00  0.00    -0.348 OA
ATOM     10  C   UNL d   1       5.761   5.235 -12.682  0.00  0.00     0.178 C 
ATOM     11  C   UNL d   1       6.965   5.932 -12.044  0.00  0.00     0.282 C 
ATOM     12  N   UNL d   1       7.959   4.974 -11.562  0.00  0.00     0.141 N 
ATOM     13  C   UNL d   1       8.374   4.090 -12.650  0.00  0.00     0.251 C 
ATOM     14  C   UNL d   1       9.262   4.717 -13.745  0.00  0.00     0.041 C 
ATOM     15  C   UNL d   1       9.814   3.627 -14.679  0.00  0.00     0.028 C 
ENDROOT
BRANCH  12  16
ATOM     16  C   UNL d   1       9.073   5.629 -10.886  0.00  0.00     0.256 C 
BRANCH  16  17
ATOM     17  C   UNL d   1       8.836   5.950  -9.400  0.00  0.00     0.068 C 
BRANCH  17  18
ATOM     18  C   UNL d   1       9.885   6.832  -8.796  0.00  0.00     0.009 A 
ATOM     19  S   UNL d   1      10.213   6.813  -7.082  0.00  0.00    -0.091 SA
ATOM     20  C   UNL d   1      11.430   8.051  -7.249  0.00  0.00     0.035 A 
ATOM     21  C   UNL d   1      11.578   8.432  -8.556  0.00  0.00     0.007 A 
ATOM     22  C   UNL d   1      10.693   7.748  -9.434  0.00  0.00     0.003 A 
ENDBRANCH  17  18
ENDBRANCH  16  17
ENDBRANCH  12  16
TORSDOF 3
