REMARK  10 active torsions:
REMARK  status: ('A' for Active; 'I' for Inactive)
REMARK    1  A    between atoms: O_2  and  C_3 
REMARK    2  A    between atoms: C_8  and  N_9 
REMARK    3  A    between atoms: N_12  and  C_13 
REMARK    4  A    between atoms: C_13  and  C_14 
REMARK    5  A    between atoms: C_14  and  C_15 
REMARK    6  A    between atoms: C_15  and  C_16 
REMARK    7  A    between atoms: C_16  and  C_17 
REMARK    8  A    between atoms: C_17  and  C_18 
REMARK    9  A    between atoms: N_20  and  C_21 
REMARK   10  A    between atoms: C_24  and  N_25 
ROOT
ATOM      1  C   UNL d   1       8.168   2.417 -14.418  0.00  0.00     0.003 C 
ENDROOT
BRANCH   1   2
ATOM      2  C   UNL d   1       8.993   2.015 -15.631  0.00  0.00     0.035 C 
BRANCH   2   3
ATOM      3  C   UNL d   1       8.277   0.986 -16.535  0.00  0.00     0.250 C 
BRANCH   3   4
ATOM      4  N   UNL d   1       9.127   0.424 -17.584  0.00  0.00     0.141 N 
ATOM      5  C   UNL d   1       9.504   1.440 -18.571  0.00  0.00     0.274 C 
ATOM      6  C   UNL d   1      10.330   0.817 -19.715  0.00  0.00     0.137 C 
ATOM      7  N   UNL d   1      11.470   0.088 -19.178  0.00  0.00    -0.343 N 
ATOM      8  C   UNL d   1      11.147  -0.902 -18.160  0.00  0.00     0.137 C 
ATOM      9  C   UNL d   1      10.315  -0.244 -17.046  0.00  0.00     0.274 C 
BRANCH   7  10
ATOM     10  C   UNL d   1      12.800   0.401 -19.517  0.00  0.00     0.079 A 
ATOM     11  C   UNL d   1      13.269   1.744 -19.613  0.00  0.00     0.110 A 
ATOM     12  C   UNL d   1      14.607   1.985 -20.029  0.00  0.00     0.026 A 
ATOM     13  C   UNL d   1      15.473   0.916 -20.321  0.00  0.00     0.002 A 
ATOM     14  C   UNL d   1      15.018  -0.408 -20.195  0.00  0.00     0.002 A 
ATOM     15  C   UNL d   1      13.692  -0.657 -19.792  0.00  0.00     0.019 A 
BRANCH  11  16
ATOM     16  O   UNL d   1      12.401   2.761 -19.269  0.00  0.00    -0.327 OA
ATOM     17  C   UNL d   1      12.830   4.106 -19.382  0.00  0.00     0.181 C 
ENDBRANCH  11  16
ENDBRANCH   7  10
ENDBRANCH   3   4
ENDBRANCH   2   3
ENDBRANCH   1   2
BRANCH   1  18
ATOM     18  C   UNL d   1       8.807   3.620 -13.710  0.00  0.00     0.006 C 
BRANCH  18  19
ATOM     19  C   UNL d   1       7.825   4.321 -12.767  0.00  0.00     0.049 C 
BRANCH  19  20
ATOM     20  C   UNL d   1       8.501   5.347 -11.920  0.00  0.00     0.101 A 
ATOM     21  N   UNL d   1       8.936   6.562 -12.437  0.00  0.00    -0.133 NA
ATOM     22  N   UNL d   1       9.454   7.267 -11.490  0.00  0.00    -0.060 NA
ATOM     23  N   UNL d   1       9.398   6.532 -10.348  0.00  0.00    -0.209 N 
ATOM     24  C   UNL d   1       8.791   5.309 -10.589  0.00  0.00     0.119 A 
BRANCH  23  25
ATOM     25  C   UNL d   1       9.878   7.059  -9.118  0.00  0.00     0.085 A 
ATOM     26  C   UNL d   1      10.270   8.409  -8.998  0.00  0.00     0.021 A 
ATOM     27  C   UNL d   1      10.748   8.912  -7.771  0.00  0.00     0.018 A 
ATOM     28  C   UNL d   1      10.846   8.085  -6.627  0.00  0.00     0.056 A 
ATOM     29  C   UNL d   1      10.451   6.736  -6.763  0.00  0.00     0.018 A 
ATOM     30  C   UNL d   1       9.970   6.228  -7.984  0.00  0.00     0.021 A 
BRANCH  28  31
ATOM     31  N   UNL d   1      11.326   8.580  -5.393  0.00  0.00    -0.344 N 
ATOM     32  C   UNL d   1      11.451  10.017  -5.190  0.00  0.00     0.126 C 
ATOM     33  C   UNL d   1      11.678   7.662  -4.312  0.00  0.00     0.126 C 
ENDBRANCH  28  31
ENDBRANCH  23  25
ENDBRANCH  19  20
ENDBRANCH  18  19
ENDBRANCH   1  18
TORSDOF 10
