REMARK  7 active torsions:
REMARK  status: ('A' for Active; 'I' for Inactive)
REMARK    1  A    between atoms: C_2  and  C_3 
REMARK       I    between atoms: C_2  and  N_7 
REMARK    2  A    between atoms: C_3  and  C_4 
REMARK    3  A    between atoms: N_7  and  C_8 
REMARK    4  A    between atoms: C_11  and  C_12 
REMARK    5  A    between atoms: C_12  and  C_13 
REMARK    6  A    between atoms: C_13  and  N_14 
REMARK    7  A    between atoms: N_17  and  C_18 
ROOT
ATOM      1  N   UNL d   1       8.541   4.391 -12.840  0.00  0.00     0.141 N 
ATOM      2  C   UNL d   1       9.158   3.240 -13.525  0.00  0.00     0.274 C 
ATOM      3  C   UNL d   1       8.371   2.890 -14.804  0.00  0.00     0.137 C 
ATOM      4  N   UNL d   1       6.975   2.668 -14.447  0.00  0.00    -0.343 N 
ATOM      5  C   UNL d   1       6.318   3.724 -13.667  0.00  0.00     0.137 C 
ATOM      6  C   UNL d   1       7.154   4.081 -12.435  0.00  0.00     0.274 C 
ENDROOT
BRANCH   1   7
ATOM      7  C   UNL d   1       9.353   4.717 -11.694  0.00  0.00     0.250 C 
BRANCH   7   8
ATOM      8  C   UNL d   1       9.171   6.160 -11.218  0.00  0.00     0.035 C 
BRANCH   8   9
ATOM      9  C   UNL d   1      10.043   6.507  -9.986  0.00  0.00     0.002 C 
ATOM     10  C   UNL d   1      10.178   8.031  -9.807  0.00  0.00     0.002 C 
ATOM     11  C   UNL d   1      11.057   8.393  -8.596  0.00  0.00     0.024 C 
ATOM     12  C   UNL d   1      10.512   7.739  -7.316  0.00  0.00     0.106 C 
ATOM     13  C   UNL d   1      10.417   6.224  -7.492  0.00  0.00     0.024 C 
ATOM     14  C   UNL d   1       9.542   5.835  -8.687  0.00  0.00     0.002 C 
BRANCH  12  15
ATOM     15  N   UNL d   1      11.370   7.997  -6.184  0.00  0.00    -0.240 NA
ATOM     16  C   UNL d   1      11.412   9.138  -5.482  0.00  0.00     0.251 C 
ATOM     17  O   UNL d   1      10.686  10.101  -5.687  0.00  0.00    -0.271 OA
BRANCH  16  18
ATOM     18  C   UNL d   1      12.466   9.188  -4.396  0.00  0.00     0.090 C 
BRANCH  18  19
ATOM     19  C   UNL d   1      11.855   9.159  -3.015  0.00  0.00     0.009 A 
ATOM     20  C   UNL d   1      11.777   7.809  -2.314  0.00  0.00     0.001 A 
ATOM     21  C   UNL d   1      12.700   8.881  -1.805  0.00  0.00     0.001 A 
ENDBRANCH  18  19
ENDBRANCH  16  18
ENDBRANCH  12  15
ENDBRANCH   8   9
ENDBRANCH   7   8
ENDBRANCH   1   7
BRANCH   4  22
ATOM     22  C   UNL d   1       6.361   1.448 -14.772  0.00  0.00     0.081 A 
ATOM     23  C   UNL d   1       6.455   0.868 -16.068  0.00  0.00     0.135 A 
ATOM     24  C   UNL d   1       5.705  -0.223 -16.446  0.00  0.00     0.121 A 
ATOM     25  O   UNL d   1       7.134   1.337 -17.165  0.00  0.00    -0.298 OA
ATOM     26  C   UNL d   1       4.812  -0.848 -15.553  0.00  0.00     0.026 A 
ATOM     27  O   UNL d   1       5.894  -0.503 -17.753  0.00  0.00    -0.299 OA
ATOM     28  C   UNL d   1       4.683  -0.301 -14.256  0.00  0.00     0.004 A 
ATOM     29  C   UNL d   1       5.468   0.820 -13.870  0.00  0.00     0.019 A 
ATOM     30  C   UNL d   1       6.822   0.445 -18.210  0.00  0.00     0.304 A 
ENDBRANCH   4  22
TORSDOF 7
