REMARK  6 active torsions:
REMARK  status: ('A' for Active; 'I' for Inactive)
REMARK    1  A    between atoms: O_2  and  C_3 
REMARK    2  A    between atoms: N_14  and  C_15 
REMARK    3  A    between atoms: C_15  and  C_16 
REMARK    4  A    between atoms: C_16  and  C_17 
REMARK    5  A    between atoms: C_17  and  C_18 
REMARK    6  A    between atoms: C_18  and  N_19 
ROOT
ATOM      1  C   UNL d   1      10.280   7.999  -9.388  0.00  0.00     0.092 A 
ATOM      2  C   UNL d   1      10.323   8.674  -8.137  0.00  0.00     0.024 A 
ATOM      3  C   UNL d   1       9.548   8.216  -7.061  0.00  0.00     0.004 A 
ATOM      4  C   UNL d   1       8.799   7.042  -7.208  0.00  0.00     0.024 A 
ATOM      5  C   UNL d   1       8.821   6.336  -8.414  0.00  0.00     0.092 A 
ATOM      6  C   UNL d   1       9.512   6.835  -9.542  0.00  0.00     0.024 A 
ATOM      7  C   UNL d   1       9.377   6.174 -10.930  0.00  0.00     0.064 C 
ATOM      8  C   UNL d   1       8.163   5.227 -11.008  0.00  0.00     0.224 C 
ATOM      9  C   UNL d   1       6.858   6.003 -11.340  0.00  0.00     0.036 C 
ATOM     10  C   UNL d   1       5.964   5.048 -12.114  0.00  0.00     0.037 C 
ATOM     11  C   UNL d   1       6.804   3.801 -12.277  0.00  0.00     0.250 C 
ATOM     12  N   UNL d   1       8.191   4.251 -12.158  0.00  0.00     0.136 N 
ATOM     13  C   UNL d   1       8.243   4.436  -9.648  0.00  0.00     0.180 C 
ATOM     14  O   UNL d   1       8.067   5.201  -8.475  0.00  0.00    -0.329 OA
ENDROOT
BRANCH  12  15
ATOM     15  C   UNL d   1       8.688   4.789 -13.439  0.00  0.00     0.250 C 
BRANCH  15  16
ATOM     16  C   UNL d   1       9.148   3.697 -14.431  0.00  0.00     0.037 C 
BRANCH  16  17
ATOM     17  C   UNL d   1       8.103   2.621 -14.724  0.00  0.00     0.027 C 
BRANCH  17  18
ATOM     18  C   UNL d   1       8.582   1.506 -15.657  0.00  0.00     0.112 C 
BRANCH  18  19
ATOM     19  N   UNL d   1       7.416   0.869 -16.293  0.00  0.00    -0.271 N 
ATOM     20  C   UNL d   1       7.115   1.271 -17.570  0.00  0.00     0.239 C 
ATOM     21  C   UNL d   1       5.910   0.682 -18.296  0.00  0.00     0.089 C 
ATOM     22  O   UNL d   1       7.733   2.147 -18.150  0.00  0.00    -0.272 OA
ATOM     23  C   UNL d   1       5.589  -0.737 -17.826  0.00  0.00     0.018 C 
ATOM     24  C   UNL d   1       5.448  -0.707 -16.288  0.00  0.00     0.089 C 
ATOM     25  C   UNL d   1       6.676  -1.736 -18.289  0.00  0.00     0.001 C 
ATOM     26  C   UNL d   1       4.318  -1.260 -18.497  0.00  0.00     0.001 C 
ATOM     27  C   UNL d   1       6.638   0.001 -15.597  0.00  0.00     0.239 C 
ATOM     28  O   UNL d   1       6.823  -0.285 -14.407  0.00  0.00    -0.272 OA
ATOM     29  C   UNL d   1       5.964  -3.088 -18.328  0.00  0.00     0.000 C 
ATOM     30  C   UNL d   1       4.505  -2.773 -18.677  0.00  0.00     0.000 C 
ENDBRANCH  18  19
ENDBRANCH  17  18
ENDBRANCH  16  17
ENDBRANCH  15  16
ENDBRANCH  12  15
BRANCH   1  31
ATOM     31  O   UNL d   1      10.925   8.411 -10.513  0.00  0.00    -0.328 OA
ATOM     32  C   UNL d   1      11.856   9.441 -10.335  0.00  0.00     0.181 C 
ENDBRANCH   1  31
TORSDOF 6
