REMARK  7 active torsions:
REMARK  status: ('A' for Active; 'I' for Inactive)
REMARK    1  A    between atoms: C_2  and  C_3 
REMARK    2  A    between atoms: C_3  and  N_4 
REMARK    3  A    between atoms: N_4  and  C_5 
REMARK    4  A    between atoms: N_4  and  C_19 
REMARK    5  A    between atoms: C_5  and  C_6 
REMARK    6  A    between atoms: C_6  and  N_7 
REMARK    7  A    between atoms: N_10  and  C_11 
ROOT
ATOM      1  N   UNL d   1       9.275   5.994 -12.684  0.00  0.00     0.137 N 
ENDROOT
BRANCH   1   2
ATOM      2  C   UNL d   1       8.117   6.841 -12.975  0.00  0.00     0.250 C 
BRANCH   2   3
ATOM      3  C   UNL d   1       6.775   6.516 -12.290  0.00  0.00     0.035 C 
ATOM      4  C   UNL d   1       5.791   7.674 -12.454  0.00  0.00     0.002 C 
ENDBRANCH   2   3
ENDBRANCH   1   2
BRANCH   1   5
ATOM      5  C   UNL d   1       9.428   5.859 -11.238  0.00  0.00     0.285 C 
BRANCH   5   6
ATOM      6  C   UNL d   1       9.693   7.185 -10.503  0.00  0.00     0.286 C 
BRANCH   6   7
ATOM      7  N   UNL d   1       9.476   7.082  -9.064  0.00  0.00     0.143 N 
ATOM      8  C   UNL d   1       9.440   8.406  -8.466  0.00  0.00     0.274 C 
ATOM      9  C   UNL d   1       9.160   8.326  -6.962  0.00  0.00     0.137 C 
ATOM     10  N   UNL d   1      10.192   7.518  -6.327  0.00  0.00    -0.344 N 
ATOM     11  C   UNL d   1      10.307   6.207  -6.928  0.00  0.00     0.137 C 
ATOM     12  C   UNL d   1      10.521   6.306  -8.432  0.00  0.00     0.274 C 
BRANCH  10  13
ATOM     13  C   UNL d   1      10.996   7.927  -5.232  0.00  0.00     0.056 A 
ATOM     14  C   UNL d   1      11.674   6.978  -4.416  0.00  0.00     0.017 A 
ATOM     15  C   UNL d   1      12.440   7.375  -3.293  0.00  0.00     0.002 A 
ATOM     16  C   UNL d   1      12.503   8.729  -2.936  0.00  0.00     0.000 A 
ATOM     17  C   UNL d   1      11.787   9.667  -3.691  0.00  0.00     0.002 A 
ATOM     18  C   UNL d   1      11.077   9.280  -4.852  0.00  0.00     0.017 A 
ENDBRANCH  10  13
ENDBRANCH   6   7
ENDBRANCH   5   6
ENDBRANCH   1   5
BRANCH   1  19
ATOM     19  C   UNL d   1       9.274   4.743 -13.463  0.00  0.00     0.224 C 
ATOM     20  C   UNL d   1       9.499   4.966 -14.987  0.00  0.00     0.059 C 
ATOM     21  C   UNL d   1       9.652   3.695 -15.812  0.00  0.00    -0.022 A 
ATOM     22  C   UNL d   1       9.964   2.467 -15.199  0.00  0.00    -0.001 A 
ATOM     23  C   UNL d   1       9.470   3.742 -17.208  0.00  0.00    -0.004 A 
ATOM     24  C   UNL d   1      10.156   2.399 -13.703  0.00  0.00     0.030 C 
ATOM     25  C   UNL d   1      10.079   1.283 -15.964  0.00  0.00     0.127 A 
ATOM     26  C   UNL d   1      10.334   3.732 -13.023  0.00  0.00     0.038 C 
ATOM     27  O   UNL d   1      10.343   0.087 -15.358  0.00  0.00    -0.191 OA
ATOM     28  C   UNL d   1       9.904   1.341 -17.358  0.00  0.00     0.027 A 
ATOM     29  C   UNL d   1       9.596   2.568 -17.977  0.00  0.00     0.002 A 
ENDBRANCH   1  19
TORSDOF 7
