REMARK  8 active torsions:
REMARK  status: ('A' for Active; 'I' for Inactive)
REMARK    1  A    between atoms: O_2  and  C_3 
REMARK    2  A    between atoms: C_7  and  C_8 
REMARK    3  A    between atoms: C_8  and  C_9 
REMARK    4  A    between atoms: C_9  and  C_10 
REMARK    5  A    between atoms: C_15  and  O_16 
REMARK    6  A    between atoms: O_16  and  C_17 
REMARK    7  A    between atoms: C_17  and  C_18 
REMARK    8  A    between atoms: C_18  and  N_19 
ROOT
ATOM      1  C   UNL d   1       8.293   5.677 -12.062  0.00  0.00     0.001 A 
ATOM      2  C   UNL d   1       6.891   5.694 -11.969  0.00  0.00    -0.002 A 
ATOM      3  C   UNL d   1       6.114   4.791 -12.716  0.00  0.00    -0.000 A 
ATOM      4  C   UNL d   1       6.739   3.863 -13.563  0.00  0.00     0.002 A 
ATOM      5  C   UNL d   1       8.138   3.818 -13.640  0.00  0.00     0.024 A 
ATOM      6  C   UNL d   1       8.935   4.739 -12.906  0.00  0.00     0.090 A 
ENDROOT
BRANCH   6   7
ATOM      7  O   UNL d   1      10.309   4.784 -12.985  0.00  0.00    -0.329 OA
BRANCH   7   8
ATOM      8  C   UNL d   1      11.000   3.747 -13.672  0.00  0.00     0.184 C 
BRANCH   8   9
ATOM      9  C   UNL d   1      10.802   3.825 -15.199  0.00  0.00     0.283 C 
BRANCH   9  10
ATOM     10  N   UNL d   1      12.000   4.347 -15.858  0.00  0.00     0.144 N 
ATOM     11  C   UNL d   1      11.823   5.784 -16.060  0.00  0.00     0.277 C 
ATOM     12  C   UNL d   1      12.929   6.417 -16.880  0.00  0.00     0.007 A 
ATOM     13  C   UNL d   1      13.714   5.614 -17.739  0.00  0.00    -0.022 A 
ATOM     14  C   UNL d   1      13.124   7.811 -16.839  0.00  0.00    -0.003 A 
ATOM     15  C   UNL d   1      13.489   4.112 -17.777  0.00  0.00     0.061 C 
ATOM     16  C   UNL d   1      14.715   6.205 -18.533  0.00  0.00    -0.004 A 
ATOM     17  C   UNL d   1      12.143   3.701 -17.159  0.00  0.00     0.255 C 
ATOM     18  C   UNL d   1      14.918   7.597 -18.481  0.00  0.00    -0.000 A 
ATOM     19  C   UNL d   1      14.119   8.399 -17.643  0.00  0.00    -0.000 A 
ENDBRANCH   9  10
ENDBRANCH   8   9
ENDBRANCH   7   8
ENDBRANCH   6   7
BRANCH   1  20
ATOM     20  C   UNL d   1       9.100   6.677 -11.245  0.00  0.00     0.033 C 
BRANCH  20  21
ATOM     21  C   UNL d   1       9.239   6.283  -9.755  0.00  0.00     0.031 C 
BRANCH  21  22
ATOM     22  C   UNL d   1      10.155   7.206  -8.948  0.00  0.00    -0.020 A 
ATOM     23  C   UNL d   1      11.398   7.573  -9.483  0.00  0.00    -0.004 A 
ATOM     24  C   UNL d   1      12.275   8.387  -8.763  0.00  0.00     0.002 A 
ATOM     25  C   UNL d   1      11.911   8.864  -7.491  0.00  0.00     0.024 A 
ATOM     26  C   UNL d   1      10.664   8.513  -6.918  0.00  0.00     0.094 A 
ATOM     27  C   UNL d   1       9.787   7.677  -7.658  0.00  0.00     0.020 A 
BRANCH  26  28
ATOM     28  O   UNL d   1      10.262   8.934  -5.666  0.00  0.00    -0.328 OA
ATOM     29  C   UNL d   1      11.081   9.873  -4.983  0.00  0.00     0.181 C 
ENDBRANCH  26  28
ENDBRANCH  21  22
ENDBRANCH  20  21
ENDBRANCH   1  20
TORSDOF 8
