REMARK  10 active torsions:
REMARK  status: ('A' for Active; 'I' for Inactive)
REMARK       I    between atoms: C_2  and  N_3 
REMARK    1  A    between atoms: C_2  and  C_33 
REMARK    2  A    between atoms: N_3  and  C_4 
REMARK    3  A    between atoms: C_4  and  C_5 
REMARK    4  A    between atoms: C_5  and  N_6 
REMARK    5  A    between atoms: N_6  and  C_7 
REMARK    6  A    between atoms: N_6  and  C_22 
REMARK    7  A    between atoms: C_7  and  C_8 
REMARK    8  A    between atoms: C_8  and  C_9 
REMARK    9  A    between atoms: C_9  and  N_10 
REMARK   10  A    between atoms: N_13  and  C_14 
ROOT
ATOM      1  N   UNL d   1       8.496   3.668 -13.136  0.00  0.00     0.138 N 
ENDROOT
BRANCH   1   2
ATOM      2  C   UNL d   1       9.574   3.518 -14.116  0.00  0.00     0.276 C 
BRANCH   2   3
ATOM      3  C   UNL d   1       9.295   4.293 -15.427  0.00  0.00     0.164 C 
BRANCH   3   4
ATOM      4  N   UNL d   1      10.484   4.941 -15.944  0.00  0.00    -0.232 NA
ATOM      5  C   UNL d   1      11.662   4.341 -16.152  0.00  0.00     0.275 C 
ATOM      6  O   UNL d   1      11.892   3.166 -15.871  0.00  0.00    -0.266 OA
BRANCH   5   7
ATOM      7  C   UNL d   1      12.682   5.170 -16.858  0.00  0.00     0.058 A 
ATOM      8  C   UNL d   1      12.793   6.562 -16.627  0.00  0.00     0.005 A 
ATOM      9  C   UNL d   1      13.774   7.310 -17.308  0.00  0.00     0.000 A 
ATOM     10  C   UNL d   1      14.645   6.671 -18.212  0.00  0.00     0.000 A 
ATOM     11  C   UNL d   1      14.539   5.286 -18.439  0.00  0.00     0.000 A 
ATOM     12  C   UNL d   1      13.562   4.538 -17.760  0.00  0.00     0.005 A 
ENDBRANCH   5   7
ENDBRANCH   3   4
ENDBRANCH   2   3
ENDBRANCH   1   2
BRANCH   1  13
ATOM     13  C   UNL d   1       8.355   5.086 -12.748  0.00  0.00     0.252 C 
BRANCH  13  14
ATOM     14  C   UNL d   1       9.511   5.538 -11.862  0.00  0.00     0.071 C 
BRANCH  14  15
ATOM     15  C   UNL d   1       9.097   6.800 -11.098  0.00  0.00     0.253 C 
BRANCH  15  16
ATOM     16  N   UNL d   1      10.172   7.291 -10.257  0.00  0.00     0.141 N 
ATOM     17  C   UNL d   1       9.858   8.653  -9.819  0.00  0.00     0.274 C 
ATOM     18  C   UNL d   1      11.028   9.180  -8.979  0.00  0.00     0.137 C 
ATOM     19  N   UNL d   1      11.146   8.332  -7.786  0.00  0.00    -0.344 N 
ATOM     20  C   UNL d   1      11.455   6.990  -8.182  0.00  0.00     0.137 C 
ATOM     21  C   UNL d   1      10.285   6.454  -9.060  0.00  0.00     0.274 C 
BRANCH  19  22
ATOM     22  C   UNL d   1      11.259   8.774  -6.450  0.00  0.00     0.056 A 
ATOM     23  C   UNL d   1      10.935  10.098  -6.128  0.00  0.00     0.017 A 
ATOM     24  C   UNL d   1      10.938  10.530  -4.813  0.00  0.00     0.002 A 
ATOM     25  C   UNL d   1      11.342   9.697  -3.762  0.00  0.00     0.000 A 
ATOM     26  C   UNL d   1      11.715   8.377  -4.056  0.00  0.00     0.002 A 
ATOM     27  C   UNL d   1      11.650   7.915  -5.386  0.00  0.00     0.017 A 
ENDBRANCH  19  22
ENDBRANCH  15  16
ENDBRANCH  14  15
ENDBRANCH  13  14
ENDBRANCH   1  13
BRANCH   1  28
ATOM     28  C   UNL d   1       7.223   3.015 -13.509  0.00  0.00     0.224 C 
ATOM     29  C   UNL d   1       7.423   1.547 -14.032  0.00  0.00     0.059 C 
ATOM     30  C   UNL d   1       6.145   0.767 -14.196  0.00  0.00    -0.022 A 
ATOM     31  C   UNL d   1       4.964   1.192 -13.559  0.00  0.00    -0.026 A 
ATOM     32  C   UNL d   1       6.135  -0.385 -15.011  0.00  0.00     0.023 A 
ATOM     33  C   UNL d   1       4.835   2.506 -12.779  0.00  0.00     0.028 C 
ATOM     34  C   UNL d   1       3.798   0.380 -13.747  0.00  0.00    -0.003 A 
ATOM     35  C   UNL d   1       6.146   3.102 -12.347  0.00  0.00     0.038 C 
ATOM     36  C   UNL d   1       3.765  -0.740 -14.582  0.00  0.00     0.027 A 
ATOM     37  C   UNL d   1       4.943  -1.118 -15.210  0.00  0.00     0.131 A 
ATOM     38  O   UNL d   1       4.967  -2.219 -16.032  0.00  0.00    -0.190 OA
ENDBRANCH   1  28
TORSDOF 10
