REMARK  6 active torsions:
REMARK  status: ('A' for Active; 'I' for Inactive)
REMARK    1  A    between atoms: C_5  and  C_6 
REMARK    2  A    between atoms: C_8  and  C_9 
REMARK    3  A    between atoms: N_12  and  C_13 
REMARK    4  A    between atoms: C_13  and  C_14 
REMARK    5  A    between atoms: C_14  and  C_15 
REMARK    6  A    between atoms: C_15  and  C_16 
ROOT
ATOM      1  C   UNL d   1       8.347   5.918 -11.423  0.00  0.00     0.046 C 
ATOM      2  C   UNL d   1       9.359   6.948 -11.942  0.00  0.00     0.041 C 
ATOM      3  C   UNL d   1       9.742   7.989 -10.873  0.00  0.00     0.251 C 
ATOM      4  N   UNL d   1      10.258   7.316  -9.677  0.00  0.00     0.137 N 
ATOM      5  C   UNL d   1       9.220   6.448  -9.108  0.00  0.00     0.251 C 
ATOM      6  C   UNL d   1       8.847   5.338 -10.096  0.00  0.00     0.041 C 
ENDROOT
BRANCH   1   7
ATOM      7  C   UNL d   1       8.108   4.831 -12.432  0.00  0.00     0.082 A 
ATOM      8  C   UNL d   1       9.073   4.034 -13.107  0.00  0.00     0.037 A 
ATOM      9  C   UNL d   1       8.332   3.199 -13.895  0.00  0.00     0.104 A 
ATOM     10  N   UNL d   1       7.010   3.508 -13.653  0.00  0.00    -0.148 NA
ATOM     11  N   UNL d   1       6.865   4.509 -12.764  0.00  0.00    -0.152 NA
BRANCH   9  12
ATOM     12  C   UNL d   1       8.731   2.133 -14.812  0.00  0.00     0.019 A 
ATOM     13  C   UNL d   1      10.099   1.805 -14.968  0.00  0.00     0.002 A 
ATOM     14  C   UNL d   1      10.497   0.787 -15.857  0.00  0.00     0.011 A 
ATOM     15  C   UNL d   1       9.533   0.080 -16.596  0.00  0.00     0.058 A 
ATOM     16 CL   UNL d   1      10.023  -1.154 -17.695  0.00  0.00    -0.082 Cl
ATOM     17  C   UNL d   1       8.168   0.387 -16.440  0.00  0.00     0.011 A 
ATOM     18  C   UNL d   1       7.772   1.407 -15.554  0.00  0.00     0.002 A 
ENDBRANCH   9  12
ENDBRANCH   1   7
BRANCH   4  19
ATOM     19  C   UNL d   1      10.657   8.347  -8.724  0.00  0.00     0.251 C 
BRANCH  19  20
ATOM     20  C   UNL d   1      11.308   7.761  -7.458  0.00  0.00     0.040 C 
BRANCH  20  21
ATOM     21  C   UNL d   1      10.359   7.745  -6.241  0.00  0.00     0.028 C 
BRANCH  21  22
ATOM     22  C   UNL d   1      11.112   7.917  -4.943  0.00  0.00    -0.022 A 
ATOM     23  C   UNL d   1      11.394   9.211  -4.466  0.00  0.00    -0.004 A 
ATOM     24  C   UNL d   1      12.053   9.379  -3.234  0.00  0.00    -0.000 A 
ATOM     25  C   UNL d   1      12.443   8.251  -2.485  0.00  0.00    -0.000 A 
ATOM     26  C   UNL d   1      12.170   6.956  -2.965  0.00  0.00    -0.000 A 
ATOM     27  C   UNL d   1      11.502   6.791  -4.193  0.00  0.00    -0.004 A 
ENDBRANCH  21  22
ENDBRANCH  20  21
ENDBRANCH  19  20
ENDBRANCH   4  19
TORSDOF 6
