REMARK  7 active torsions:
REMARK  status: ('A' for Active; 'I' for Inactive)
REMARK    1  A    between atoms: C_6  and  N_7 
REMARK    2  A    between atoms: N_10  and  C_11 
REMARK    3  A    between atoms: C_11  and  C_12 
REMARK    4  A    between atoms: C_12  and  C_13 
REMARK    5  A    between atoms: C_13  and  C_14 
REMARK    6  A    between atoms: C_14  and  N_15 
REMARK    7  A    between atoms: C_17  and  C_18 
ROOT
ATOM      1  C   UNL d   1       9.354   4.005 -12.913  0.00  0.00     0.037 C 
ENDROOT
BRANCH   1   2
ATOM      2  C   UNL d   1       7.934   3.846 -13.468  0.00  0.00     0.251 C 
BRANCH   2   3
ATOM      3  N   UNL d   1       7.737   2.522 -14.051  0.00  0.00     0.141 N 
ATOM      4  C   UNL d   1       6.303   2.328 -14.249  0.00  0.00     0.274 C 
ATOM      5  C   UNL d   1       6.018   0.929 -14.823  0.00  0.00     0.137 C 
ATOM      6  N   UNL d   1       6.789   0.703 -16.040  0.00  0.00    -0.344 N 
ATOM      7  C   UNL d   1       8.223   0.953 -15.908  0.00  0.00     0.137 C 
ATOM      8  C   UNL d   1       8.459   2.347 -15.314  0.00  0.00     0.274 C 
BRANCH   6   9
ATOM      9  C   UNL d   1       6.205   0.231 -17.234  0.00  0.00     0.068 A 
ATOM     10  C   UNL d   1       6.621   0.825 -18.456  0.00  0.00     0.018 A 
ATOM     11  C   UNL d   1       6.069   0.445 -19.692  0.00  0.00     0.002 A 
ATOM     12  C   UNL d   1       5.087  -0.555 -19.732  0.00  0.00     0.012 A 
ATOM     13  C   UNL d   1       4.666  -1.180 -18.552  0.00  0.00     0.070 A 
ATOM     14 CL   UNL d   1       3.472  -2.414 -18.654  0.00  0.00    -0.081 Cl
ATOM     15  C   UNL d   1       5.218  -0.816 -17.304  0.00  0.00     0.084 A 
ATOM     16 CL   UNL d   1       4.716  -1.723 -15.913  0.00  0.00    -0.080 Cl
ENDBRANCH   6   9
ENDBRANCH   2   3
ENDBRANCH   1   2
BRANCH   1  17
ATOM     17  C   UNL d   1       9.560   5.367 -12.241  0.00  0.00     0.029 C 
BRANCH  17  18
ATOM     18  C   UNL d   1       8.839   5.516 -10.886  0.00  0.00     0.129 C 
BRANCH  18  19
ATOM     19  N   UNL d   1       9.485   6.484 -10.014  0.00  0.00    -0.231 N 
ATOM     20  N   UNL d   1       9.858   7.700 -10.479  0.00  0.00    -0.064 NA
ATOM     21  N   UNL d   1      10.379   8.348  -9.483  0.00  0.00    -0.129 NA
ATOM     22  C   UNL d   1      10.328   7.560  -8.330  0.00  0.00     0.123 A 
ATOM     23  C   UNL d   1       9.760   6.363  -8.670  0.00  0.00     0.118 A 
BRANCH  22  24
ATOM     24  C   UNL d   1      10.840   8.035  -7.042  0.00  0.00     0.021 A 
ATOM     25  C   UNL d   1      11.004   7.145  -5.959  0.00  0.00     0.003 A 
ATOM     26  C   UNL d   1      11.500   7.588  -4.707  0.00  0.00     0.019 A 
ATOM     27  C   UNL d   1      11.800   8.977  -4.569  0.00  0.00     0.081 A 
ATOM     28  C   UNL d   1      11.826   6.943  -3.466  0.00  0.00     0.022 A 
ATOM     29  C   UNL d   1      11.614   9.874  -5.633  0.00  0.00     0.019 A 
ATOM     30  N   UNL d   1      12.258   9.133  -3.272  0.00  0.00    -0.244 NA
ATOM     31  C   UNL d   1      11.162   9.393  -6.865  0.00  0.00     0.003 A 
ATOM     32  C   UNL d   1      12.258   7.918  -2.608  0.00  0.00     0.099 A 
ENDBRANCH  22  24
ENDBRANCH  18  19
ENDBRANCH  17  18
ENDBRANCH   1  17
TORSDOF 7
