REMARK  4 active torsions:
REMARK  status: ('A' for Active; 'I' for Inactive)
REMARK    1  A    between atoms: C_2  and  O_3 
REMARK    2  A    between atoms: O_3  and  C_4 
REMARK    3  A    between atoms: C_9  and  O_10 
REMARK    4  A    between atoms: C_18  and  O_19 
ROOT
ATOM      1  C   UNL d   1       8.586   5.568 -12.009  0.00  0.00     0.116 A 
ATOM      2  C   UNL d   1       8.499   4.505 -11.080  0.00  0.00     0.026 A 
ATOM      3  C   UNL d   1       9.017   4.628  -9.766  0.00  0.00    -0.002 A 
ATOM      4  C   UNL d   1       9.548   5.844  -9.330  0.00  0.00    -0.020 A 
ATOM      5  C   UNL d   1       9.584   6.920 -10.230  0.00  0.00     0.031 A 
ATOM      6  C   UNL d   1       9.090   6.803 -11.557  0.00  0.00     0.114 A 
ATOM      7  C   UNL d   1      10.141   8.217  -9.726  0.00  0.00     0.279 C 
ATOM      8  N   UNL d   1      10.998   8.090  -8.564  0.00  0.00     0.144 N 
ATOM      9  C   UNL d   1      11.311   9.452  -8.185  0.00  0.00     0.256 C 
ATOM     10  C   UNL d   1      12.344   9.400  -7.074  0.00  0.00     0.061 C 
ATOM     11  C   UNL d   1      11.836   8.628  -5.896  0.00  0.00    -0.020 A 
ATOM     12  C   UNL d   1      12.436   8.813  -4.642  0.00  0.00     0.022 A 
ATOM     13  C   UNL d   1      12.162   7.906  -3.605  0.00  0.00     0.119 A 
ATOM     14  C   UNL d   1      11.259   6.916  -3.826  0.00  0.00     0.153 A 
ATOM     15  O   UNL d   1      10.877   6.385  -2.630  0.00  0.00    -0.188 OA
ATOM     16  C   UNL d   1      10.554   6.772  -5.038  0.00  0.00     0.027 A 
ATOM     17  C   UNL d   1      10.877   7.607  -6.123  0.00  0.00     0.007 A 
ATOM     18  C   UNL d   1      10.217   7.446  -7.494  0.00  0.00     0.246 C 
ATOM     19  C   UNL d   1      10.073   5.979  -7.918  0.00  0.00     0.064 C 
ENDROOT
BRANCH   1  20
ATOM     20  O   UNL d   1       8.166   5.423 -13.325  0.00  0.00    -0.329 OA
BRANCH  20  21
ATOM     21  C   UNL d   1       7.668   4.145 -13.768  0.00  0.00     0.149 C 
ATOM     22  C   UNL d   1       6.154   4.020 -13.518  0.00  0.00     0.035 C 
ENDBRANCH  20  21
ENDBRANCH   1  20
BRANCH   6  23
ATOM     23  O   UNL d   1       9.083   7.836 -12.439  0.00  0.00    -0.326 OA
ATOM     24  C   UNL d   1       8.167   8.860 -12.140  0.00  0.00     0.181 C 
ENDBRANCH   6  23
BRANCH  13  25
ATOM     25  O   UNL d   1      12.683   7.926  -2.330  0.00  0.00    -0.326 OA
ATOM     26  C   UNL d   1      13.051   9.157  -1.828  0.00  0.00     0.181 C 
ENDBRANCH  13  25
TORSDOF 4
