REMARK  4 active torsions:
REMARK  status: ('A' for Active; 'I' for Inactive)
REMARK    1  A    between atoms: O_2  and  C_3 
REMARK    2  A    between atoms: C_7  and  N_8 
REMARK       I    between atoms: N_11  and  C_12 
REMARK    3  A    between atoms: C_12  and  C_14 
REMARK    4  A    between atoms: C_31  and  O_32 
ROOT
ATOM      1  N   UNL d   1       8.832   5.353 -11.606  0.00  0.00    -0.179 N 
ATOM      2  C   UNL d   1       9.442   6.606 -11.118  0.00  0.00     0.144 C 
ATOM      3  C   UNL d   1      10.191   6.377  -9.793  0.00  0.00     0.129 C 
ATOM      4  N   UNL d   1       9.307   5.729  -8.835  0.00  0.00    -0.314 N 
ATOM      5  C   UNL d   1       8.989   6.305  -7.666  0.00  0.00     0.264 C 
ATOM      6  O   UNL d   1       7.974   5.989  -7.039  0.00  0.00    -0.270 OA
ATOM      7  C   UNL d   1       8.723   4.473  -9.324  0.00  0.00     0.129 C 
ATOM      8  C   UNL d   1       7.943   4.726 -10.630  0.00  0.00     0.144 C 
ENDROOT
BRANCH   1   9
ATOM      9  C   UNL d   1       9.109   4.823 -12.866  0.00  0.00     0.728 A 
ATOM     10  N   UNL d   1       8.299   3.864 -13.320  0.00  0.00    -0.061 NA
ATOM     11  C   UNL d   1       8.559   3.328 -14.532  0.00  0.00     0.104 A 
ATOM     12  C   UNL d   1       7.737   2.302 -15.028  0.00  0.00     0.046 A 
ATOM     13  C   UNL d   1       9.614   3.816 -15.329  0.00  0.00     0.052 A 
ATOM     14  C   UNL d   1       7.944   1.779 -16.332  0.00  0.00     0.118 A 
ATOM     15  C   UNL d   1       8.979   2.299 -17.141  0.00  0.00     0.117 A 
ATOM     16  C   UNL d   1       9.815   3.319 -16.632  0.00  0.00     0.030 A 
ATOM     17  C   UNL d   1      10.420   4.816 -14.764  0.00  0.00     0.171 A 
ATOM     18  N   UNL d   1      10.171   5.295 -13.534  0.00  0.00    -0.047 NA
ATOM     19  N   UNL d   1      11.490   5.411 -15.427  0.00  0.00    -0.079 NA
BRANCH  14  20
ATOM     20  O   UNL d   1       7.142   0.790 -16.886  0.00  0.00    -0.326 OA
ATOM     21  C   UNL d   1       6.231   0.112 -16.036  0.00  0.00     0.181 C 
ENDBRANCH  14  20
BRANCH  15  22
ATOM     22  O   UNL d   1       9.116   1.767 -18.404  0.00  0.00    -0.326 OA
ATOM     23  C   UNL d   1      10.186   2.234 -19.210  0.00  0.00     0.181 C 
ENDBRANCH  15  22
ENDBRANCH   1   9
BRANCH   5  24
ATOM     24  C   UNL d   1       9.979   7.223  -6.984  0.00  0.00     0.229 C 
ATOM     25  O   UNL d   1      10.401   6.586  -5.782  0.00  0.00    -0.319 OA
ATOM     26  C   UNL d   1      11.078   7.423  -4.939  0.00  0.00     0.117 A 
ATOM     27  C   UNL d   1      10.973   8.827  -5.109  0.00  0.00     0.116 A 
ATOM     28  C   UNL d   1      11.818   6.880  -3.872  0.00  0.00     0.026 A 
ATOM     29  O   UNL d   1      10.253   9.401  -6.130  0.00  0.00    -0.326 OA
ATOM     30  C   UNL d   1      11.549   9.669  -4.163  0.00  0.00     0.026 A 
ATOM     31  C   UNL d   1       9.258   8.545  -6.684  0.00  0.00     0.189 C 
ATOM     32  C   UNL d   1      12.284   9.134  -3.097  0.00  0.00     0.002 A 
ATOM     33  C   UNL d   1      12.448   7.747  -2.960  0.00  0.00     0.002 A 
ENDBRANCH   5  24
TORSDOF 4
