REMARK  2 active torsions:
REMARK  status: ('A' for Active; 'I' for Inactive)
REMARK    1  A    between atoms: C_2  and  N_4 
REMARK    2  A    between atoms: C_8  and  C_9 
ROOT
ATOM      1  C   UNL d   1      10.795   7.919  -7.320  0.00  0.00    -0.020 A 
ATOM      2  C   UNL d   1      11.824   8.341  -8.205  0.00  0.00    -0.004 A 
ATOM      3  C   UNL d   1      11.868   7.830  -9.526  0.00  0.00     0.000 A 
ATOM      4  C   UNL d   1      10.906   6.891  -9.928  0.00  0.00     0.010 A 
ATOM      5  C   UNL d   1       9.906   6.469  -9.036  0.00  0.00     0.068 A 
ATOM      6  C   UNL d   1       8.985   5.475  -9.495  0.00  0.00     0.101 C 
ATOM      7  N   UNL d   1       8.254   4.672  -9.884  0.00  0.00    -0.191 NA
ATOM      8  C   UNL d   1       9.838   6.983  -7.728  0.00  0.00     0.006 A 
ENDROOT
BRANCH   1   9
ATOM      9  C   UNL d   1      10.652   8.512  -5.939  0.00  0.00     0.056 C 
ATOM     10  C   UNL d   1      10.974   9.993  -6.032  0.00  0.00     0.008 C 
ATOM     11  C   UNL d   1      10.841  10.520  -4.641  0.00  0.00     0.036 C 
ATOM     12  C   UNL d   1      11.833   9.814  -3.690  0.00  0.00     0.250 C 
ATOM     13  N   UNL d   1      11.470   8.402  -3.561  0.00  0.00     0.135 N 
ATOM     14  C   UNL d   1      11.532   7.799  -4.904  0.00  0.00     0.254 C 
BRANCH  13  15
ATOM     15  C   UNL d   1      12.332   7.653  -2.671  0.00  0.00     0.219 C 
ATOM     16  C   UNL d   1      11.625   6.389  -2.203  0.00  0.00     0.035 C 
ATOM     17  C   UNL d   1      12.727   8.452  -1.426  0.00  0.00     0.035 C 
ENDBRANCH  13  15
ENDBRANCH   1   9
TORSDOF 2
