REMARK  8 active torsions:
REMARK  status: ('A' for Active; 'I' for Inactive)
REMARK    1  A    between atoms: C_4  and  C_5 
REMARK    2  A    between atoms: C_11  and  C_12 
REMARK    3  A    between atoms: N_16  and  C_17 
REMARK    4  A    between atoms: C_17  and  C_18 
REMARK    5  A    between atoms: C_18  and  C_19 
REMARK    6  A    between atoms: C_19  and  S_20 
REMARK    7  A    between atoms: S_20  and  C_21 
REMARK    8  A    between atoms: C_24  and  C_25 
ROOT
ATOM      1  C   UNL d   1       8.128   5.679 -12.015  0.00  0.00     0.052 A 
ATOM      2  C   UNL d   1       6.614   5.755 -12.066  0.00  0.00     0.008 A 
ATOM      3  C   UNL d   1       7.315   4.421 -12.123  0.00  0.00     0.039 A 
ATOM      4  C   UNL d   1       7.761   3.770 -13.413  0.00  0.00     0.251 C 
ATOM      5  N   UNL d   1       9.079   4.348 -13.650  0.00  0.00     0.137 N 
ATOM      6  C   UNL d   1       8.965   5.741 -13.256  0.00  0.00     0.254 C 
ENDROOT
BRANCH   5   7
ATOM      7  C   UNL d   1       9.517   4.229 -15.043  0.00  0.00     0.251 C 
BRANCH   7   8
ATOM      8  C   UNL d   1       9.869   2.765 -15.343  0.00  0.00     0.047 C 
BRANCH   8   9
ATOM      9  C   UNL d   1      10.402   2.575 -16.771  0.00  0.00     0.067 C 
BRANCH   9  10
ATOM     10  S   UNL d   1      10.355   0.839 -17.311  0.00  0.00    -0.075 SA
BRANCH  10  11
ATOM     11  C   UNL d   1       8.614   0.583 -17.521  0.00  0.00     0.193 A 
ATOM     12  N   UNL d   1       8.117  -0.542 -18.080  0.00  0.00    -0.287 N 
ATOM     13  C   UNL d   1       6.788  -0.344 -17.971  0.00  0.00     0.191 A 
ATOM     14  C   UNL d   1       8.814  -1.680 -18.657  0.00  0.00     0.134 C 
ATOM     15  N   UNL d   1       6.466   0.826 -17.415  0.00  0.00    -0.126 NA
ATOM     16  N   UNL d   1       7.669   1.450 -17.143  0.00  0.00    -0.122 NA
BRANCH  13  17
ATOM     17  C   UNL d   1       5.767  -1.258 -18.440  0.00  0.00     0.151 A 
ATOM     18  C   UNL d   1       5.122  -1.363 -19.644  0.00  0.00     0.087 A 
ATOM     19  N   UNL d   1       4.191  -2.384 -19.553  0.00  0.00    -0.221 NA
ATOM     20  C   UNL d   1       5.295  -0.568 -20.899  0.00  0.00     0.054 C 
ATOM     21  C   UNL d   1       4.307  -2.821 -18.303  0.00  0.00     0.225 A 
ATOM     22  O   UNL d   1       5.247  -2.171 -17.569  0.00  0.00    -0.282 OA
ENDBRANCH  13  17
ENDBRANCH  10  11
ENDBRANCH   9  10
ENDBRANCH   8   9
ENDBRANCH   7   8
ENDBRANCH   5   7
BRANCH   1  23
ATOM     23  C   UNL d   1       8.871   6.021 -10.732  0.00  0.00    -0.025 A 
ATOM     24  C   UNL d   1       9.519   7.275 -10.548  0.00  0.00    -0.026 A 
ATOM     25  C   UNL d   1       9.486   8.361 -11.601  0.00  0.00     0.031 C 
ATOM     26  C   UNL d   1      10.155   7.587  -9.328  0.00  0.00    -0.001 A 
ATOM     27  C   UNL d   1      10.148   6.666  -8.268  0.00  0.00     0.071 A 
ATOM     28  C   UNL d   1       9.498   5.438  -8.447  0.00  0.00     0.004 A 
ATOM     29  C   UNL d   1       8.870   5.111  -9.664  0.00  0.00    -0.005 A 
BRANCH  27  30
ATOM     30  C   UNL d   1      10.833   6.976  -6.937  0.00  0.00     0.419 C 
ATOM     31  F   UNL d   1      11.854   6.133  -6.775  0.00  0.00    -0.166 F 
ATOM     32  F   UNL d   1      11.309   8.225  -6.874  0.00  0.00    -0.166 F 
ATOM     33  F   UNL d   1       9.979   6.802  -5.925  0.00  0.00    -0.166 F 
ENDBRANCH  27  30
ENDBRANCH   1  23
TORSDOF 8
