REMARK  5 active torsions:
REMARK  status: ('A' for Active; 'I' for Inactive)
REMARK    1  A    between atoms: C_8  and  C_9 
REMARK    2  A    between atoms: C_9  and  C_10 
REMARK    3  A    between atoms: C_10  and  C_11 
REMARK    4  A    between atoms: C_11  and  N_12 
REMARK    5  A    between atoms: N_15  and  C_16 
ROOT
ATOM      1  N   UNL d   1       9.500   5.106 -12.124  0.00  0.00     0.141 N 
ATOM      2  C   UNL d   1       8.681   5.543 -13.261  0.00  0.00     0.274 C 
ATOM      3  C   UNL d   1       9.316   5.092 -14.585  0.00  0.00     0.137 C 
ATOM      4  N   UNL d   1       9.517   3.651 -14.579  0.00  0.00    -0.343 N 
ATOM      5  C   UNL d   1      10.245   3.142 -13.445  0.00  0.00     0.137 C 
ATOM      6  C   UNL d   1       9.578   3.646 -12.164  0.00  0.00     0.274 C 
ENDROOT
BRANCH   1   7
ATOM      7  C   UNL d   1       8.824   5.548 -10.911  0.00  0.00     0.251 C 
BRANCH   7   8
ATOM      8  C   UNL d   1       9.560   5.109  -9.623  0.00  0.00     0.040 C 
BRANCH   8   9
ATOM      9  C   UNL d   1       9.092   5.842  -8.370  0.00  0.00     0.030 C 
BRANCH   9  10
ATOM     10  C   UNL d   1       9.791   7.153  -8.181  0.00  0.00    -0.002 A 
ATOM     11  C   UNL d   1       9.885   8.171  -9.099  0.00  0.00     0.095 A 
ATOM     12  N   UNL d   1      10.636   9.185  -8.569  0.00  0.00    -0.244 NA
ATOM     13  C   UNL d   1      10.992   8.911  -7.272  0.00  0.00     0.081 A 
ATOM     14  C   UNL d   1      11.701   9.653  -6.311  0.00  0.00     0.020 A 
ATOM     15  C   UNL d   1      10.488   7.606  -7.002  0.00  0.00     0.016 A 
ATOM     16  C   UNL d   1      11.943   9.090  -5.047  0.00  0.00     0.013 A 
ATOM     17  C   UNL d   1      11.493   7.790  -4.762  0.00  0.00     0.058 A 
ATOM     18 CL   UNL d   1      11.896   7.080  -3.244  0.00  0.00    -0.082 Cl
ATOM     19  C   UNL d   1      10.760   7.058  -5.724  0.00  0.00     0.013 A 
ENDBRANCH   9  10
ENDBRANCH   8   9
ENDBRANCH   7   8
ENDBRANCH   1   7
BRANCH   4  20
ATOM     20  C   UNL d   1       9.108   2.811 -15.639  0.00  0.00     0.081 A 
ATOM     21  C   UNL d   1       9.278   3.228 -16.976  0.00  0.00     0.132 A 
ATOM     22  C   UNL d   1       8.817   2.396 -18.042  0.00  0.00     0.118 A 
ATOM     23  O   UNL d   1       9.887   4.432 -17.248  0.00  0.00    -0.325 OA
ATOM     24  C   UNL d   1       8.191   1.176 -17.749  0.00  0.00     0.026 A 
ATOM     25  O   UNL d   1       8.965   2.786 -19.355  0.00  0.00    -0.326 OA
ATOM     26  C   UNL d   1       8.040   0.752 -16.414  0.00  0.00     0.004 A 
ATOM     27  C   UNL d   1       8.501   1.567 -15.363  0.00  0.00     0.019 A 
ATOM     28  C   UNL d   1       9.890   3.854 -19.558  0.00  0.00     0.181 C 
ATOM     29  C   UNL d   1       9.630   4.964 -18.535  0.00  0.00     0.182 C 
ENDBRANCH   4  20
TORSDOF 5
