REMARK  9 active torsions:
REMARK  status: ('A' for Active; 'I' for Inactive)
REMARK    1  A    between atoms: S_2  and  O_5 
REMARK    2  A    between atoms: O_5  and  C_6 
REMARK    3  A    between atoms: N_19  and  C_20 
REMARK    4  A    between atoms: C_20  and  C_21 
REMARK    5  A    between atoms: C_21  and  C_22 
REMARK    6  A    between atoms: C_22  and  C_23 
REMARK    7  A    between atoms: C_23  and  N_24 
REMARK       I    between atoms: N_24  and  C_25 
REMARK    8  A    between atoms: C_25  and  C_27 
REMARK    9  A    between atoms: C_30  and  C_31 
ROOT
ATOM      1  C   UNL d   1      13.081   2.121 -20.834  0.00  0.00     0.109 A 
ATOM      2  C   UNL d   1      12.876   2.368 -22.203  0.00  0.00     0.025 A 
ATOM      3  C   UNL d   1      12.414   3.619 -22.636  0.00  0.00     0.002 A 
ATOM      4  C   UNL d   1      12.082   4.602 -21.692  0.00  0.00    -0.004 A 
ATOM      5  C   UNL d   1      12.218   4.357 -20.303  0.00  0.00    -0.023 A 
ATOM      6  C   UNL d   1      12.761   3.111 -19.877  0.00  0.00    -0.002 A 
ATOM      7  C   UNL d   1      12.994   2.810 -18.401  0.00  0.00     0.030 C 
ATOM      8  C   UNL d   1      12.844   4.027 -17.479  0.00  0.00     0.038 C 
ATOM      9  C   UNL d   1      11.625   4.907 -17.841  0.00  0.00     0.224 C 
ATOM     10  C   UNL d   1      11.833   5.443 -19.287  0.00  0.00     0.053 C 
ATOM     11  C   UNL d   1      10.614   6.290 -19.705  0.00  0.00     0.008 C 
ATOM     12  C   UNL d   1       9.345   5.432 -19.633  0.00  0.00     0.036 C 
ATOM     13  C   UNL d   1       9.194   4.965 -18.195  0.00  0.00     0.250 C 
ATOM     14  N   UNL d   1      10.341   4.184 -17.696  0.00  0.00     0.135 N 
ENDROOT
BRANCH  14  15
ATOM     15  C   UNL d   1      10.070   3.743 -16.318  0.00  0.00     0.250 C 
BRANCH  15  16
ATOM     16  C   UNL d   1       9.521   4.855 -15.373  0.00  0.00     0.037 C 
BRANCH  16  17
ATOM     17  C   UNL d   1       8.614   4.261 -14.288  0.00  0.00     0.029 C 
BRANCH  17  18
ATOM     18  C   UNL d   1       9.448   3.673 -13.136  0.00  0.00     0.129 C 
BRANCH  18  19
ATOM     19  N   UNL d   1       9.410   4.441 -11.889  0.00  0.00    -0.234 NA
ATOM     20  C   UNL d   1       9.283   5.777 -11.736  0.00  0.00     0.275 C 
ATOM     21  O   UNL d   1       8.996   6.547 -12.640  0.00  0.00    -0.266 OA
BRANCH  20  22
ATOM     22  C   UNL d   1       9.668   6.302 -10.388  0.00  0.00     0.058 A 
ATOM     23  C   UNL d   1      10.258   7.580 -10.325  0.00  0.00     0.005 A 
ATOM     24  C   UNL d   1      10.621   8.144  -9.094  0.00  0.00     0.000 A 
ATOM     25  C   UNL d   1      10.386   7.431  -7.902  0.00  0.00     0.000 A 
ATOM     26  C   UNL d   1       9.784   6.152  -7.968  0.00  0.00     0.000 A 
ATOM     27  C   UNL d   1       9.422   5.579  -9.208  0.00  0.00     0.005 A 
BRANCH  25  28
ATOM     28  C   UNL d   1      10.764   8.014  -6.604  0.00  0.00     0.000 A 
ATOM     29  C   UNL d   1      10.719   9.407  -6.407  0.00  0.00     0.000 A 
ATOM     30  C   UNL d   1      11.077   9.978  -5.174  0.00  0.00     0.000 A 
ATOM     31  C   UNL d   1      11.498   9.149  -4.119  0.00  0.00     0.000 A 
ATOM     32  C   UNL d   1      11.552   7.755  -4.308  0.00  0.00     0.000 A 
ATOM     33  C   UNL d   1      11.180   7.191  -5.539  0.00  0.00     0.000 A 
ENDBRANCH  25  28
ENDBRANCH  20  22
ENDBRANCH  18  19
ENDBRANCH  17  18
ENDBRANCH  16  17
ENDBRANCH  15  16
ENDBRANCH  14  15
BRANCH   1  34
ATOM     34  O   UNL d   1      13.576   0.902 -20.434  0.00  0.00    -0.231 OA
BRANCH  34  35
ATOM     35  S   UNL d   1      15.260   0.716 -20.453  0.00  0.00     0.285 S 
ATOM     36  C   UNL d   1      15.535   0.461 -22.257  0.00  0.00     0.172 C 
ATOM     37  O   UNL d   1      15.575  -0.533 -19.749  0.00  0.00    -0.197 OA
ATOM     38  O   UNL d   1      15.860   1.985 -20.046  0.00  0.00    -0.197 OA
ENDBRANCH  34  35
ENDBRANCH   1  34
TORSDOF 9
