REMARK  6 active torsions:
REMARK  status: ('A' for Active; 'I' for Inactive)
REMARK       I    between atoms: C_2  and  N_3 
REMARK       I    between atoms: C_2  and  N_24 
REMARK    1  A    between atoms: N_3  and  C_4 
REMARK    2  A    between atoms: C_8  and  C_9 
REMARK    3  A    between atoms: C_9  and  C_10 
REMARK    4  A    between atoms: C_10  and  N_11 
REMARK    5  A    between atoms: N_14  and  C_15 
REMARK    6  A    between atoms: N_24  and  C_25 
ROOT
ATOM      1  C   UNL d   1       9.584   6.171 -10.074  0.00  0.00     0.086 A 
ATOM      2  C   UNL d   1       9.442   7.365 -10.815  0.00  0.00     0.019 A 
ATOM      3  C   UNL d   1       9.089   7.335 -12.163  0.00  0.00     0.001 A 
ATOM      4  C   UNL d   1       8.960   6.108 -12.834  0.00  0.00    -0.004 A 
ATOM      5  C   UNL d   1       9.173   4.904 -12.146  0.00  0.00    -0.019 A 
ATOM      6  C   UNL d   1       9.443   4.933 -10.750  0.00  0.00     0.015 A 
ENDROOT
BRANCH   5   7
ATOM      7  C   UNL d   1       9.082   3.610 -12.940  0.00  0.00     0.062 C 
BRANCH   7   8
ATOM      8  C   UNL d   1       7.643   3.343 -13.427  0.00  0.00     0.255 C 
BRANCH   8   9
ATOM      9  N   UNL d   1       7.526   2.034 -14.065  0.00  0.00     0.141 N 
ATOM     10  C   UNL d   1       6.137   1.559 -13.948  0.00  0.00     0.274 C 
ATOM     11  C   UNL d   1       5.971   0.148 -14.556  0.00  0.00     0.137 C 
ATOM     12  N   UNL d   1       6.469   0.153 -15.924  0.00  0.00    -0.344 N 
ATOM     13  C   UNL d   1       7.817   0.676 -16.095  0.00  0.00     0.137 C 
ATOM     14  C   UNL d   1       7.918   2.077 -15.471  0.00  0.00     0.274 C 
BRANCH  12  15
ATOM     15  C   UNL d   1       5.683  -0.291 -17.021  0.00  0.00     0.056 A 
ATOM     16  C   UNL d   1       5.845   0.300 -18.294  0.00  0.00     0.017 A 
ATOM     17  C   UNL d   1       5.097  -0.147 -19.398  0.00  0.00     0.002 A 
ATOM     18  C   UNL d   1       4.170  -1.185 -19.241  0.00  0.00     0.000 A 
ATOM     19  C   UNL d   1       3.986  -1.778 -17.982  0.00  0.00     0.002 A 
ATOM     20  C   UNL d   1       4.738  -1.335 -16.870  0.00  0.00     0.017 A 
ENDBRANCH  12  15
ENDBRANCH   8   9
ENDBRANCH   7   8
ENDBRANCH   5   7
BRANCH   1  21
ATOM     21  N   UNL d   1       9.808   6.156  -8.663  0.00  0.00    -0.191 NA
ATOM     22  C   UNL d   1      10.382   7.133  -7.927  0.00  0.00     0.370 C 
ATOM     23  O   UNL d   1      10.814   8.192  -8.382  0.00  0.00    -0.242 OA
ATOM     24  N   UNL d   1      10.509   6.778  -6.641  0.00  0.00    -0.172 NA
BRANCH  24  25
ATOM     25  C   UNL d   1      11.007   7.569  -5.575  0.00  0.00     0.167 A 
ATOM     26  N   UNL d   1      11.012   8.923  -5.573  0.00  0.00    -0.225 NA
ATOM     27  C   UNL d   1      11.468   9.575  -4.487  0.00  0.00     0.101 A 
ATOM     28  C   UNL d   1      11.955   8.919  -3.343  0.00  0.00     0.021 A 
ATOM     29  C   UNL d   1      11.956   7.513  -3.334  0.00  0.00     0.005 A 
ATOM     30  C   UNL d   1      11.463   6.833  -4.463  0.00  0.00     0.039 A 
ENDBRANCH  24  25
ENDBRANCH   1  21
TORSDOF 6
