REMARK  3 active torsions:
REMARK  status: ('A' for Active; 'I' for Inactive)
REMARK    1  A    between atoms: C_8  and  C_9 
REMARK    2  A    between atoms: C_9  and  N_10 
REMARK    3  A    between atoms: C_13  and  C_14 
ROOT
ATOM      1  N   UNL d   1      13.229   5.798 -17.615  0.00  0.00     0.137 N 
ATOM      2  C   UNL d   1      14.115   6.096 -16.485  0.00  0.00     0.251 C 
ATOM      3  C   UNL d   1      15.585   6.118 -16.932  0.00  0.00     0.041 C 
ATOM      4  C   UNL d   1      15.815   7.140 -18.056  0.00  0.00     0.047 C 
ATOM      5  C   UNL d   1      14.793   6.912 -19.178  0.00  0.00     0.041 C 
ATOM      6  C   UNL d   1      13.358   6.854 -18.625  0.00  0.00     0.251 C 
ENDROOT
BRANCH   1   7
ATOM      7  C   UNL d   1      11.836   5.718 -17.169  0.00  0.00     0.251 C 
BRANCH   7   8
ATOM      8  C   UNL d   1      11.493   4.361 -16.506  0.00  0.00     0.047 C 
ATOM      9  C   UNL d   1      10.113   4.414 -15.790  0.00  0.00     0.048 C 
ATOM     10  C   UNL d   1       9.647   3.038 -15.433  0.00  0.00     0.060 A 
ATOM     11  N   UNL d   1       8.638   2.688 -14.550  0.00  0.00    -0.253 N 
ATOM     12  C   UNL d   1      10.128   1.869 -15.925  0.00  0.00     0.069 A 
ATOM     13  C   UNL d   1       7.772   3.533 -13.753  0.00  0.00     0.153 C 
ATOM     14  N   UNL d   1       8.501   1.340 -14.459  0.00  0.00    -0.168 NA
ATOM     15  C   UNL d   1       9.410   0.831 -15.281  0.00  0.00     0.124 A 
ATOM     16  C   UNL d   1      11.206   1.812 -16.927  0.00  0.00     0.176 C 
ATOM     17  C   UNL d   1      11.585   3.181 -17.522  0.00  0.00     0.072 C 
ATOM     18  O   UNL d   1      11.754   0.777 -17.306  0.00  0.00    -0.291 OA
ENDBRANCH   7   8
ENDBRANCH   1   7
BRANCH   4  19
ATOM     19  C   UNL d   1      17.234   7.098 -18.566  0.00  0.00     0.087 A 
ATOM     20  C   UNL d   1      18.248   8.081 -18.565  0.00  0.00     0.041 A 
ATOM     21  C   UNL d   1      19.400   7.549 -19.154  0.00  0.00     0.129 A 
ATOM     22  C   UNL d   1      18.260   9.411 -18.096  0.00  0.00     0.006 A 
ATOM     23  O   UNL d   1      19.068   6.252 -19.499  0.00  0.00    -0.211 OA
ATOM     24  C   UNL d   1      20.587   8.280 -19.307  0.00  0.00     0.057 A 
ATOM     25  N   UNL d   1      17.722   5.990 -19.126  0.00  0.00    -0.131 NA
ATOM     26  C   UNL d   1      20.601   9.608 -18.839  0.00  0.00     0.142 A 
ATOM     27  F   UNL d   1      21.726  10.354 -18.958  0.00  0.00    -0.204 F 
ATOM     28  C   UNL d   1      19.447  10.168 -18.236  0.00  0.00     0.030 A 
ENDBRANCH   4  19
TORSDOF 3
