REMARK  4 active torsions:
REMARK  status: ('A' for Active; 'I' for Inactive)
REMARK       I    between atoms: N_8  and  C_9 
REMARK    1  A    between atoms: C_9  and  C_11 
REMARK    2  A    between atoms: C_11  and  N_12 
REMARK    3  A    between atoms: N_15  and  C_16 
REMARK    4  A    between atoms: C_16  and  C_17 
ROOT
ATOM      1  C   UNL d   1      14.259   5.118 -18.465  0.00  0.00     0.031 C 
ATOM      2  C   UNL d   1      13.376   3.891 -18.409  0.00  0.00    -0.020 A 
ATOM      3  C   UNL d   1      13.502   2.868 -19.357  0.00  0.00    -0.004 A 
ATOM      4  C   UNL d   1      12.664   1.745 -19.281  0.00  0.00    -0.003 A 
ATOM      5  C   UNL d   1      11.697   1.615 -18.248  0.00  0.00    -0.007 A 
ATOM      6  C   UNL d   1      11.528   2.664 -17.309  0.00  0.00     0.058 A 
ATOM      7  C   UNL d   1      12.394   3.797 -17.412  0.00  0.00     0.013 A 
ATOM      8  N   UNL d   1      10.521   2.581 -16.267  0.00  0.00    -0.301 N 
ATOM      9  C   UNL d   1      10.548   3.453 -15.228  0.00  0.00     0.271 C 
ATOM     10  O   UNL d   1      11.593   3.717 -14.642  0.00  0.00    -0.270 OA
ATOM     11  C   UNL d   1       9.529   1.454 -16.261  0.00  0.00     0.071 C 
ATOM     12  C   UNL d   1       9.055   1.149 -14.808  0.00  0.00     0.023 C 
ATOM     13  C   UNL d   1       8.319   1.782 -17.174  0.00  0.00     0.023 C 
ATOM     14  C   UNL d   1      10.204   0.182 -16.806  0.00  0.00     0.025 C 
ATOM     15  C   UNL d   1      10.846   0.356 -18.189  0.00  0.00     0.026 C 
ATOM     16  C   UNL d   1      11.639  -0.891 -18.557  0.00  0.00     0.005 C 
ENDROOT
BRANCH   9  17
ATOM     17  C   UNL d   1       9.258   4.167 -14.776  0.00  0.00     0.337 C 
BRANCH  17  18
ATOM     18  N   UNL d   1       9.027   4.192 -13.323  0.00  0.00     0.151 N 
ATOM     19  C   UNL d   1       7.679   4.662 -12.973  0.00  0.00     0.286 C 
ATOM     20  C   UNL d   1       7.452   4.735 -11.443  0.00  0.00     0.286 C 
ATOM     21  N   UNL d   1       8.474   5.560 -10.802  0.00  0.00     0.146 N 
ATOM     22  C   UNL d   1       9.777   5.026 -11.126  0.00  0.00     0.286 C 
ATOM     23  C   UNL d   1      10.009   5.023 -12.636  0.00  0.00     0.286 C 
BRANCH  21  24
ATOM     24  C   UNL d   1       8.288   5.642  -9.352  0.00  0.00     0.277 C 
BRANCH  24  25
ATOM     25  C   UNL d   1       9.190   6.667  -8.646  0.00  0.00     0.011 A 
ATOM     26  C   UNL d   1       9.209   6.721  -7.236  0.00  0.00    -0.002 A 
ATOM     27  C   UNL d   1      10.059   7.628  -6.571  0.00  0.00     0.011 A 
ATOM     28  C   UNL d   1      10.894   8.487  -7.311  0.00  0.00     0.058 A 
ATOM     29  C   UNL d   1      10.878   8.452  -8.717  0.00  0.00     0.011 A 
ATOM     30 CL   UNL d   1      11.915   9.593  -6.474  0.00  0.00    -0.082 Cl
ATOM     31  C   UNL d   1      10.005   7.573  -9.375  0.00  0.00    -0.002 A 
ENDBRANCH  24  25
ENDBRANCH  21  24
ENDBRANCH  17  18
ENDBRANCH   9  17
TORSDOF 4
