REMARK  5 active torsions:
REMARK  status: ('A' for Active; 'I' for Inactive)
REMARK    1  A    between atoms: N_2  and  C_4 
REMARK    2  A    between atoms: C_12  and  C_13 
REMARK    3  A    between atoms: C_13  and  C_14 
REMARK    4  A    between atoms: C_14  and  N_15 
REMARK    5  A    between atoms: C_18  and  C_19 
ROOT
ATOM      1  N   UNL d   1       9.325   6.313  -9.627  0.00  0.00     0.137 N 
ATOM      2  C   UNL d   1      10.737   6.267  -9.315  0.00  0.00     0.251 C 
ATOM      3  C   UNL d   1      11.158   7.313  -8.293  0.00  0.00     0.041 C 
ATOM      4  C   UNL d   1      10.345   7.146  -7.014  0.00  0.00     0.047 C 
ATOM      5  C   UNL d   1       8.845   7.059  -7.344  0.00  0.00     0.041 C 
ATOM      6  C   UNL d   1       8.571   5.996  -8.421  0.00  0.00     0.251 C 
ENDROOT
BRANCH   1   7
ATOM      7  C   UNL d   1       9.035   5.324 -10.654  0.00  0.00     0.250 C 
BRANCH   7   8
ATOM      8  C   UNL d   1       7.963   5.853 -11.619  0.00  0.00     0.038 C 
BRANCH   8   9
ATOM      9  C   UNL d   1       7.776   4.987 -12.893  0.00  0.00     0.037 C 
ATOM     10  C   UNL d   1       6.846   3.785 -12.671  0.00  0.00     0.174 C 
ATOM     11  C   UNL d   1       6.877   2.763 -13.811  0.00  0.00     0.005 A 
ATOM     12  O   UNL d   1       5.546   4.234 -12.325  0.00  0.00    -0.219 OA
ATOM     13  C   UNL d   1       7.855   2.778 -14.841  0.00  0.00    -0.024 A 
ATOM     14  C   UNL d   1       5.918   1.736 -13.803  0.00  0.00     0.021 A 
ATOM     15  C   UNL d   1       7.797   1.835 -15.877  0.00  0.00    -0.003 A 
ATOM     16  C   UNL d   1       8.936   3.845 -14.877  0.00  0.00     0.026 C 
ATOM     17  C   UNL d   1       6.798   0.848 -15.884  0.00  0.00     0.023 A 
ATOM     18  C   UNL d   1       5.834   0.763 -14.831  0.00  0.00     0.126 A 
ATOM     19  C   UNL d   1       9.116   4.560 -13.539  0.00  0.00     0.008 C 
BRANCH  18  20
ATOM     20  N   UNL d   1       4.734  -0.236 -14.853  0.00  0.00    -0.114 N 
ATOM     21  O   UNL d   1       4.502  -0.851 -15.900  0.00  0.00    -0.532 OA
ATOM     22  O   UNL d   1       4.048  -0.404 -13.824  0.00  0.00    -0.532 OA
ENDBRANCH  18  20
ENDBRANCH   8   9
ENDBRANCH   7   8
ENDBRANCH   1   7
BRANCH   4  23
ATOM     23  C   UNL d   1      10.649   8.264  -6.074  0.00  0.00     0.087 A 
ATOM     24  C   UNL d   1      11.290   8.257  -4.837  0.00  0.00     0.041 A 
ATOM     25  C   UNL d   1      11.298   9.562  -4.330  0.00  0.00     0.129 A 
ATOM     26  C   UNL d   1      11.856   7.207  -4.075  0.00  0.00     0.006 A 
ATOM     27  O   UNL d   1      10.682  10.345  -5.289  0.00  0.00    -0.211 OA
ATOM     28  C   UNL d   1      11.850   9.882  -3.092  0.00  0.00     0.057 A 
ATOM     29  N   UNL d   1      10.326   9.515  -6.384  0.00  0.00    -0.131 NA
ATOM     30  C   UNL d   1      12.443   8.845  -2.368  0.00  0.00     0.142 A 
ATOM     31  F   UNL d   1      13.085   9.125  -1.240  0.00  0.00    -0.204 F 
ATOM     32  C   UNL d   1      12.429   7.521  -2.826  0.00  0.00     0.030 A 
ENDBRANCH   4  23
TORSDOF 5
