REMARK  6 active torsions:
REMARK  status: ('A' for Active; 'I' for Inactive)
REMARK       I    between atoms: C_2  and  N_3 
REMARK    1  A    between atoms: C_2  and  C_27 
REMARK    2  A    between atoms: N_3  and  C_4 
REMARK    3  A    between atoms: C_7  and  C_8 
REMARK    4  A    between atoms: C_8  and  C_9 
REMARK    5  A    between atoms: C_9  and  N_10 
REMARK    6  A    between atoms: C_13  and  C_14 
ROOT
ATOM      1  C   UNL d   1       8.252   5.420 -11.279  0.00  0.00     0.250 C 
ENDROOT
BRANCH   1   2
ATOM      2  C   UNL d   1       9.068   6.676 -10.909  0.00  0.00     0.035 C 
BRANCH   2   3
ATOM      3  C   UNL d   1       9.129   6.930  -9.387  0.00  0.00     0.002 C 
ATOM      4  C   UNL d   1      10.092   5.947  -8.722  0.00  0.00     0.002 C 
ATOM      5  C   UNL d   1      10.259   6.237  -7.235  0.00  0.00     0.024 C 
ATOM      6  C   UNL d   1      10.657   7.689  -6.985  0.00  0.00     0.106 C 
ATOM      7  C   UNL d   1       9.651   8.659  -7.607  0.00  0.00     0.024 C 
ATOM      8  C   UNL d   1       9.531   8.399  -9.104  0.00  0.00     0.002 C 
BRANCH   6   9
ATOM      9  N   UNL d   1      10.766   7.900  -5.559  0.00  0.00    -0.240 NA
ATOM     10  C   UNL d   1      11.395   8.917  -4.979  0.00  0.00     0.253 C 
ATOM     11  O   UNL d   1      11.868   9.864  -5.608  0.00  0.00    -0.271 OA
BRANCH  10  12
ATOM     12  C   UNL d   1      11.477   8.857  -3.449  0.00  0.00     0.113 C 
ATOM     13  C   UNL d   1      11.860   7.477  -2.875  0.00  0.00     0.152 C 
ATOM     14  O   UNL d   1      12.507   7.720  -1.632  0.00  0.00    -0.354 OA
ATOM     15  C   UNL d   1      12.746   9.116  -1.510  0.00  0.00     0.143 C 
ATOM     16  C   UNL d   1      12.568   9.716  -2.899  0.00  0.00     0.044 C 
ENDBRANCH  10  12
ENDBRANCH   6   9
ENDBRANCH   2   3
ENDBRANCH   1   2
BRANCH   1  17
ATOM     17  N   UNL d   1       8.624   4.904 -12.594  0.00  0.00     0.137 N 
ATOM     18  C   UNL d   1       9.877   4.139 -12.540  0.00  0.00     0.251 C 
ATOM     19  C   UNL d   1      10.296   3.674 -13.936  0.00  0.00     0.040 C 
ATOM     20  C   UNL d   1       9.197   2.845 -14.607  0.00  0.00     0.026 C 
ATOM     21  C   UNL d   1       7.910   3.647 -14.484  0.00  0.00     0.040 C 
ATOM     22  C   UNL d   1       7.527   4.066 -13.081  0.00  0.00     0.251 C 
BRANCH  20  23
ATOM     23  C   UNL d   1       9.535   2.571 -16.073  0.00  0.00    -0.024 A 
ATOM     24  C   UNL d   1       9.575   1.260 -16.598  0.00  0.00    -0.001 A 
ATOM     25  C   UNL d   1       9.918   0.993 -17.925  0.00  0.00     0.090 A 
ATOM     26  C   UNL d   1       9.305  -0.022 -15.898  0.00  0.00     0.061 A 
ATOM     27  C   UNL d   1      10.230   2.023 -18.815  0.00  0.00     0.024 A 
ATOM     28  O   UNL d   1       9.922  -0.343 -18.213  0.00  0.00    -0.331 OA
ATOM     29  C   UNL d   1      10.191   3.354 -18.341  0.00  0.00     0.002 A 
ATOM     30  C   UNL d   1       9.842   3.617 -16.986  0.00  0.00    -0.004 A 
ATOM     31  C   UNL d   1       9.474  -1.040 -17.049  0.00  0.00     0.154 A 
ENDBRANCH  20  23
ENDBRANCH   1  17
TORSDOF 6
