REMARK  13 active torsions:
REMARK  status: ('A' for Active; 'I' for Inactive)
REMARK    1  A    between atoms: C_9  and  C_10 
REMARK    2  A    between atoms: C_10  and  C_12 
REMARK    3  A    between atoms: C_12  and  N_13 
REMARK    4  A    between atoms: N_13  and  C_14 
REMARK    5  A    between atoms: C_14  and  C_15 
REMARK    6  A    between atoms: C_15  and  S_16 
REMARK    7  A    between atoms: S_16  and  C_17 
REMARK    8  A    between atoms: C_17  and  C_18 
REMARK    9  A    between atoms: C_18  and  C_19 
REMARK   10  A    between atoms: C_19  and  N_20 
REMARK   11  A    between atoms: N_20  and  C_21 
REMARK   12  A    between atoms: C_21  and  C_22 
REMARK   13  A    between atoms: C_22  and  C_23 
ROOT
ATOM      1  C   UNL d   1       9.034   3.402 -14.310  0.00  0.00     0.302 C 
ENDROOT
BRANCH   1   2
ATOM      2  N   UNL d   1       9.369   3.195 -15.726  0.00  0.00     0.343 N 
BRANCH   2   3
ATOM      3  C   UNL d   1      10.095   1.952 -15.997  0.00  0.00     0.327 C 
BRANCH   3   4
ATOM      4  C   UNL d   1       9.323   0.671 -15.591  0.00  0.00     0.211 C 
ATOM      5  O   UNL d   1      10.243  -0.384 -15.732  0.00  0.00    -0.216 OA
BRANCH   4   6
ATOM      6  C   UNL d   1       8.084   0.423 -16.439  0.00  0.00     0.018 A 
ATOM      7  C   UNL d   1       8.162   0.419 -17.856  0.00  0.00     0.001 A 
ATOM      8  C   UNL d   1       7.022   0.166 -18.653  0.00  0.00     0.029 A 
ATOM      9  C   UNL d   1       5.783  -0.127 -18.049  0.00  0.00     0.149 A 
ATOM     10  C   UNL d   1       5.724  -0.168 -16.644  0.00  0.00     0.116 A 
ATOM     11  O   UNL d   1       4.674  -0.368 -18.809  0.00  0.00    -0.189 OA
ATOM     12  N   UNL d   1       4.591  -0.486 -15.881  0.00  0.00    -0.200 NA
ATOM     13  C   UNL d   1       6.839   0.112 -15.856  0.00  0.00     0.052 A 
ATOM     14  C   UNL d   1       4.734  -0.412 -14.504  0.00  0.00     0.311 A 
ATOM     15  O   UNL d   1       3.867  -0.533 -13.640  0.00  0.00    -0.258 OA
ATOM     16  S   UNL d   1       6.458  -0.006 -14.146  0.00  0.00    -0.024 SA
ENDBRANCH   4   6
ENDBRANCH   3   4
ENDBRANCH   2   3
ENDBRANCH   1   2
BRANCH   1  17
ATOM     17  C   UNL d   1       8.625   4.854 -14.051  0.00  0.00     0.096 C 
BRANCH  17  18
ATOM     18  S   UNL d   1       7.927   5.117 -12.395  0.00  0.00    -0.138 SA
BRANCH  18  19
ATOM     19  C   UNL d   1       9.429   5.253 -11.384  0.00  0.00     0.060 C 
BRANCH  19  20
ATOM     20  C   UNL d   1       9.307   6.413 -10.383  0.00  0.00     0.050 C 
BRANCH  20  21
ATOM     21  C   UNL d   1      10.537   6.508  -9.467  0.00  0.00     0.291 C 
BRANCH  21  22
ATOM     22  N   UNL d   1      10.508   7.761  -8.730  0.00  0.00     0.339 N 
BRANCH  22  23
ATOM     23  C   UNL d   1      11.308   7.701  -7.510  0.00  0.00     0.295 C 
BRANCH  23  24
ATOM     24  C   UNL d   1      10.371   7.713  -6.296  0.00  0.00     0.065 C 
BRANCH  24  25
ATOM     25  C   UNL d   1      11.141   7.841  -4.995  0.00  0.00    -0.009 A 
ATOM     26  C   UNL d   1      11.480   9.098  -4.470  0.00  0.00     0.054 A 
ATOM     27  C   UNL d   1      12.150   9.203  -3.239  0.00  0.00     0.011 A 
ATOM     28 CL   UNL d   1      11.043  10.508  -5.336  0.00  0.00    -0.083 Cl
ATOM     29  C   UNL d   1      12.502   8.046  -2.517  0.00  0.00     0.001 A 
ATOM     30  C   UNL d   1      12.172   6.786  -3.042  0.00  0.00    -0.000 A 
ATOM     31  C   UNL d   1      11.488   6.685  -4.272  0.00  0.00    -0.003 A 
ENDBRANCH  24  25
ENDBRANCH  23  24
ENDBRANCH  22  23
ENDBRANCH  21  22
ENDBRANCH  20  21
ENDBRANCH  19  20
ENDBRANCH  18  19
ENDBRANCH  17  18
ENDBRANCH   1  17
TORSDOF 13
