REMARK  7 active torsions:
REMARK  status: ('A' for Active; 'I' for Inactive)
REMARK    1  A    between atoms: C_2  and  O_3 
REMARK    2  A    between atoms: C_2  and  C_11 
REMARK    3  A    between atoms: O_3  and  C_4 
REMARK    4  A    between atoms: C_4  and  C_5 
REMARK    5  A    between atoms: C_22  and  C_23 
REMARK    6  A    between atoms: C_23  and  N_24 
REMARK    7  A    between atoms: N_34  and  C_35 
ROOT
ATOM      1  C   UNL d   1       9.346   6.385  -9.566  0.00  0.00     0.144 A 
ATOM      2  C   UNL d   1      10.088   6.451 -10.745  0.00  0.00     0.028 A 
ATOM      3  C   UNL d   1       9.440   5.636 -11.734  0.00  0.00     0.044 A 
ATOM      4  C   UNL d   1       9.575   5.191 -13.113  0.00  0.00     0.118 A 
ATOM      5  C   UNL d   1       8.585   4.349 -13.704  0.00  0.00     0.116 A 
ATOM      6  C   UNL d   1       7.476   3.944 -12.986  0.00  0.00     0.028 A 
ATOM      7  C   UNL d   1       7.289   4.328 -11.663  0.00  0.00     0.021 A 
ATOM      8  C   UNL d   1       8.268   5.129 -11.085  0.00  0.00     0.084 A 
ATOM      9  N   UNL d   1       8.295   5.540  -9.778  0.00  0.00    -0.240 NA
ATOM     10  O   UNL d   1       8.711   3.866 -14.968  0.00  0.00    -0.326 OA
ATOM     11  C   UNL d   1       9.524   4.632 -15.818  0.00  0.00     0.181 C 
ATOM     12  C   UNL d   1      10.863   4.854 -15.098  0.00  0.00     0.185 C 
ATOM     13  O   UNL d   1      10.668   5.560 -13.873  0.00  0.00    -0.327 OA
ENDROOT
BRANCH  12  14
ATOM     14  C   UNL d   1      11.818   5.673 -15.951  0.00  0.00     0.283 C 
BRANCH  14  15
ATOM     15  N   UNL d   1      11.798   5.281 -17.376  0.00  0.00     0.140 N 
ATOM     16  C   UNL d   1      12.486   4.003 -17.622  0.00  0.00     0.253 C 
ATOM     17  C   UNL d   1      14.019   4.149 -17.417  0.00  0.00     0.065 C 
ATOM     18  C   UNL d   1      14.570   5.398 -18.161  0.00  0.00     0.142 C 
ATOM     19  C   UNL d   1      13.732   6.677 -17.911  0.00  0.00     0.065 C 
ATOM     20  N   UNL d   1      14.844   5.211 -19.627  0.00  0.00    -0.323 N 
ATOM     21  C   UNL d   1      15.962   5.790 -17.603  0.00  0.00     0.271 C 
ATOM     22  C   UNL d   1      12.251   6.423 -18.191  0.00  0.00     0.253 C 
ATOM     23  C   UNL d   1      16.176   5.687 -19.904  0.00  0.00     0.234 C 
ATOM     24  N   UNL d   1      16.796   5.991 -18.610  0.00  0.00    -0.211 NA
ATOM     25  O   UNL d   1      16.220   5.966 -16.411  0.00  0.00    -0.269 OA
BRANCH  20  26
ATOM     26  C   UNL d   1      14.220   4.181 -20.419  0.00  0.00     0.058 A 
ATOM     27  C   UNL d   1      15.007   3.101 -20.900  0.00  0.00     0.017 A 
ATOM     28  C   UNL d   1      14.416   2.055 -21.645  0.00  0.00     0.002 A 
ATOM     29  C   UNL d   1      13.053   2.064 -21.946  0.00  0.00     0.000 A 
ATOM     30  C   UNL d   1      12.271   3.127 -21.501  0.00  0.00     0.002 A 
ATOM     31  C   UNL d   1      12.836   4.209 -20.794  0.00  0.00     0.017 A 
ENDBRANCH  20  26
ENDBRANCH  14  15
ENDBRANCH  12  14
BRANCH   1  32
ATOM     32  C   UNL d   1       9.399   7.022  -8.259  0.00  0.00     0.314 C 
ATOM     33  O   UNL d   1       8.675   6.622  -7.335  0.00  0.00    -0.257 OA
BRANCH  32  34
ATOM     34  O   UNL d   1      10.235   8.081  -8.171  0.00  0.00    -0.292 OA
BRANCH  34  35
ATOM     35  C   UNL d   1      10.138   8.960  -7.037  0.00  0.00     0.179 C 
BRANCH  35  36
ATOM     36  C   UNL d   1      10.917   8.538  -5.791  0.00  0.00     0.008 A 
ATOM     37  C   UNL d   1      11.088   7.173  -5.455  0.00  0.00    -0.002 A 
ATOM     38  C   UNL d   1      11.759   6.803  -4.275  0.00  0.00    -0.000 A 
ATOM     39  C   UNL d   1      12.283   7.780  -3.408  0.00  0.00    -0.000 A 
ATOM     40  C   UNL d   1      12.123   9.148  -3.729  0.00  0.00    -0.000 A 
ATOM     41  C   UNL d   1      11.434   9.527  -4.910  0.00  0.00    -0.002 A 
ENDBRANCH  35  36
ENDBRANCH  34  35
ENDBRANCH  32  34
ENDBRANCH   1  32
TORSDOF 7
