REMARK  7 active torsions:
REMARK  status: ('A' for Active; 'I' for Inactive)
REMARK    1  A    between atoms: C_7  and  N_8 
REMARK    2  A    between atoms: N_11  and  C_12 
REMARK    3  A    between atoms: C_12  and  C_13 
REMARK    4  A    between atoms: C_13  and  C_14 
REMARK    5  A    between atoms: C_14  and  C_15 
REMARK    6  A    between atoms: C_15  and  N_16 
REMARK       I    between atoms: N_16  and  C_17 
REMARK    7  A    between atoms: C_17  and  C_19 
ROOT
ATOM      1  C   UNL d   1      11.000   4.684 -15.969  0.00  0.00     0.037 C 
ENDROOT
BRANCH   1   2
ATOM      2  C   UNL d   1      11.110   3.158 -16.192  0.00  0.00     0.251 C 
BRANCH   2   3
ATOM      3  N   UNL d   1      10.031   2.431 -15.532  0.00  0.00     0.141 N 
ATOM      4  C   UNL d   1      10.094   1.010 -15.910  0.00  0.00     0.274 C 
ATOM      5  C   UNL d   1       9.025   0.231 -15.111  0.00  0.00     0.137 C 
ATOM      6  N   UNL d   1       7.709   0.819 -15.239  0.00  0.00    -0.344 N 
ATOM      7  C   UNL d   1       7.651   2.255 -15.022  0.00  0.00     0.137 C 
ATOM      8  C   UNL d   1       8.704   2.976 -15.882  0.00  0.00     0.274 C 
BRANCH   6   9
ATOM      9  C   UNL d   1       6.577   0.115 -15.683  0.00  0.00     0.052 A 
ATOM     10  C   UNL d   1       5.465  -0.053 -14.826  0.00  0.00    -0.006 A 
ATOM     11  C   UNL d   1       5.473   0.500 -13.410  0.00  0.00     0.033 C 
ATOM     12  C   UNL d   1       4.339  -0.778 -15.278  0.00  0.00    -0.003 A 
ATOM     13  C   UNL d   1       4.318  -1.313 -16.577  0.00  0.00    -0.000 A 
ATOM     14  C   UNL d   1       5.414  -1.126 -17.436  0.00  0.00     0.002 A 
ATOM     15  C   UNL d   1       6.546  -0.412 -16.989  0.00  0.00     0.017 A 
ENDBRANCH   6   9
ENDBRANCH   2   3
ENDBRANCH   1   2
BRANCH   1  16
ATOM     16  C   UNL d   1      10.996   5.116 -14.483  0.00  0.00     0.029 C 
BRANCH  16  17
ATOM     17  C   UNL d   1       9.735   4.712 -13.682  0.00  0.00     0.129 C 
BRANCH  17  18
ATOM     18  N   UNL d   1       9.807   5.150 -12.303  0.00  0.00    -0.234 NA
ATOM     19  C   UNL d   1       9.199   6.250 -11.837  0.00  0.00     0.275 C 
ATOM     20  O   UNL d   1       8.525   7.021 -12.510  0.00  0.00    -0.266 OA
BRANCH  19  21
ATOM     21  C   UNL d   1       9.434   6.497 -10.398  0.00  0.00     0.058 A 
ATOM     22  C   UNL d   1      10.328   7.518 -10.030  0.00  0.00     0.005 A 
ATOM     23  C   UNL d   1      10.570   7.771  -8.672  0.00  0.00     0.000 A 
ATOM     24  C   UNL d   1       9.901   7.006  -7.688  0.00  0.00     0.000 A 
ATOM     25  C   UNL d   1      11.460   8.789  -8.292  0.00  0.00     0.000 A 
ATOM     26  C   UNL d   1       9.012   5.984  -8.072  0.00  0.00     0.000 A 
ATOM     27  C   UNL d   1      10.116   7.282  -6.326  0.00  0.00     0.000 A 
ATOM     28  C   UNL d   1       8.788   5.709  -9.430  0.00  0.00     0.005 A 
ATOM     29  C   UNL d   1      11.003   8.302  -5.946  0.00  0.00     0.000 A 
ATOM     30  C   UNL d   1      11.677   9.058  -6.926  0.00  0.00     0.000 A 
ENDBRANCH  19  21
ENDBRANCH  17  18
ENDBRANCH  16  17
ENDBRANCH   1  16
TORSDOF 7
