REMARK  7 active torsions:
REMARK  status: ('A' for Active; 'I' for Inactive)
REMARK    1  A    between atoms: C_3  and  S_4 
REMARK    2  A    between atoms: S_4  and  C_5 
REMARK    3  A    between atoms: C_5  and  C_6 
REMARK    4  A    between atoms: C_6  and  C_7 
REMARK    5  A    between atoms: C_7  and  N_8 
REMARK    6  A    between atoms: N_13  and  C_14 
REMARK    7  A    between atoms: C_26  and  C_27 
ROOT
ATOM      1  C   UNL d   1      12.508   2.773 -18.292  0.00  0.00     0.036 A 
ATOM      2  C   UNL d   1      13.434   3.025 -19.338  0.00  0.00     0.012 A 
ATOM      3  C   UNL d   1      14.434   4.012 -19.194  0.00  0.00     0.011 A 
ATOM      4  C   UNL d   1      14.501   4.777 -18.008  0.00  0.00     0.068 A 
ATOM      5  C   UNL d   1      15.540   5.774 -17.827  0.00  0.00     0.101 C 
ATOM      6  N   UNL d   1      16.374   6.567 -17.679  0.00  0.00    -0.191 NA
ATOM      7  C   UNL d   1      13.569   4.555 -16.980  0.00  0.00     0.011 A 
ATOM      8  C   UNL d   1      12.592   3.558 -17.111  0.00  0.00     0.012 A 
ENDROOT
BRANCH   1   9
ATOM      9  N   UNL d   1      11.521   1.762 -18.413  0.00  0.00    -0.252 NA
ATOM     10  C   UNL d   1      11.468   0.933 -19.616  0.00  0.00     0.077 C 
ATOM     11  C   UNL d   1      10.483  -0.187 -19.290  0.00  0.00     0.021 C 
ATOM     12  C   UNL d   1      10.746  -0.435 -17.803  0.00  0.00     0.052 C 
ATOM     13  C   UNL d   1       9.505  -0.690 -16.945  0.00  0.00     0.252 C 
ATOM     14  C   UNL d   1      11.328   0.874 -17.272  0.00  0.00     0.097 C 
ATOM     15  N   UNL d   1       9.076   0.633 -16.547  0.00  0.00     0.138 N 
ATOM     16  C   UNL d   1      10.303   1.359 -16.232  0.00  0.00     0.266 C 
BRANCH  15  17
ATOM     17  C   UNL d   1       8.104   0.615 -15.467  0.00  0.00     0.251 C 
BRANCH  17  18
ATOM     18  C   UNL d   1       7.573   2.033 -15.242  0.00  0.00     0.047 C 
BRANCH  18  19
ATOM     19  C   UNL d   1       6.482   2.068 -14.144  0.00  0.00     0.067 C 
BRANCH  19  20
ATOM     20  S   UNL d   1       5.993   3.721 -13.558  0.00  0.00    -0.075 SA
BRANCH  20  21
ATOM     21  C   UNL d   1       7.457   4.342 -12.779  0.00  0.00     0.193 A 
ATOM     22  N   UNL d   1       7.459   5.482 -12.088  0.00  0.00    -0.287 N 
ATOM     23  C   UNL d   1       6.352   6.397 -11.834  0.00  0.00     0.134 C 
ATOM     24  C   UNL d   1       8.734   5.533 -11.630  0.00  0.00     0.186 A 
ATOM     25  N   UNL d   1       9.482   4.514 -12.047  0.00  0.00    -0.127 NA
ATOM     26  N   UNL d   1       8.661   3.763 -12.838  0.00  0.00    -0.122 NA
BRANCH  24  27
ATOM     27  C   UNL d   1       9.312   6.537 -10.783  0.00  0.00     0.136 A 
ATOM     28  N   UNL d   1       9.816   6.121  -9.604  0.00  0.00    -0.238 NA
ATOM     29  C   UNL d   1      10.423   7.035  -8.831  0.00  0.00     0.120 A 
ATOM     30  C   UNL d   1      10.531   8.379  -9.236  0.00  0.00     0.120 A 
ATOM     31  N   UNL d   1      10.071   8.794 -10.447  0.00  0.00    -0.239 NA
ATOM     32  C   UNL d   1       9.439   7.873 -11.212  0.00  0.00     0.121 A 
ENDBRANCH  24  27
ENDBRANCH  20  21
ENDBRANCH  19  20
ENDBRANCH  18  19
ENDBRANCH  17  18
ENDBRANCH  15  17
ENDBRANCH   1   9
TORSDOF 7
