REMARK  1 active torsions:
REMARK  status: ('A' for Active; 'I' for Inactive)
REMARK    1  A    between atoms: C_12  and  C_13 
ROOT
ATOM      1  O   UNL d   1       8.863   3.640  -8.455  0.00  0.00    -0.189 OA
ATOM      2  C   UNL d   1       9.202   4.832  -9.021  0.00  0.00     0.141 A 
ATOM      3  C   UNL d   1      10.166   5.599  -8.358  0.00  0.00     0.024 A 
ATOM      4  C   UNL d   1      10.631   6.831  -8.839  0.00  0.00    -0.016 A 
ATOM      5  C   UNL d   1      10.076   7.309 -10.034  0.00  0.00     0.011 A 
ATOM      6  C   UNL d   1       9.096   6.549 -10.707  0.00  0.00     0.011 A 
ATOM      7  C   UNL d   1       8.657   5.316 -10.228  0.00  0.00     0.083 A 
ATOM      8 CL   UNL d   1       7.512   4.434 -11.175  0.00  0.00    -0.080 Cl
ATOM      9  C   UNL d   1      10.507   8.642 -10.561  0.00  0.00     0.317 C 
ATOM     10  N   UNL d   1      11.835   9.047 -10.127  0.00  0.00     0.344 N 
ATOM     11  C   UNL d   1      11.813   9.040  -8.687  0.00  0.00     0.299 C 
ATOM     12  C   UNL d   1      11.720   7.623  -8.119  0.00  0.00     0.080 C 
ENDROOT
BRANCH  12  13
ATOM     13  C   UNL d   1      11.553   7.636  -6.612  0.00  0.00    -0.016 A 
ATOM     14  C   UNL d   1      11.271   8.822  -5.889  0.00  0.00    -0.004 A 
ATOM     15  C   UNL d   1      11.251   8.832  -4.490  0.00  0.00    -0.000 A 
ATOM     16  C   UNL d   1      11.513   7.653  -3.789  0.00  0.00    -0.000 A 
ATOM     17  C   UNL d   1      11.799   6.504  -4.473  0.00  0.00    -0.000 A 
ATOM     18  C   UNL d   1      11.852   6.476  -5.878  0.00  0.00    -0.004 A 
ENDBRANCH  12  13
TORSDOF 1
