REMARK  6 active torsions:
REMARK  status: ('A' for Active; 'I' for Inactive)
REMARK    1  A    between atoms: C_2  and  C_3 
REMARK    2  A    between atoms: C_3  and  N_4 
REMARK    3  A    between atoms: N_4  and  C_5 
REMARK    4  A    between atoms: N_4  and  C_9 
REMARK    5  A    between atoms: C_5  and  C_6 
REMARK    6  A    between atoms: C_17  and  C_18 
ROOT
ATOM      1  C   UNL d   1       8.636   5.503 -11.359  0.00  0.00     0.224 C 
ATOM      2  C   UNL d   1       9.343   6.367 -12.423  0.00  0.00     0.038 C 
ATOM      3  C   UNL d   1       9.555   7.780 -11.937  0.00  0.00     0.028 C 
ATOM      4  C   UNL d   1      10.050   7.859 -10.490  0.00  0.00    -0.026 A 
ATOM      5  C   UNL d   1      10.632   9.049 -10.079  0.00  0.00    -0.003 A 
ATOM      6  C   UNL d   1      11.059   9.303  -8.830  0.00  0.00     0.019 A 
ATOM      7  C   UNL d   1      10.982   8.332  -7.881  0.00  0.00     0.081 A 
ATOM      8  N   UNL d   1      11.379   8.432  -6.600  0.00  0.00    -0.241 NA
ATOM      9  C   UNL d   1      11.179   7.265  -5.930  0.00  0.00     0.141 A 
ATOM     10  C   UNL d   1      10.625   6.432  -6.870  0.00  0.00     0.025 A 
ATOM     11  C   UNL d   1      10.461   7.045  -8.159  0.00  0.00     0.015 A 
ATOM     12  C   UNL d   1       9.981   6.803  -9.508  0.00  0.00    -0.023 A 
ATOM     13  C   UNL d   1       9.418   5.468 -10.008  0.00  0.00     0.059 C 
ENDROOT
BRANCH   1  14
ATOM     14  N   UNL d   1       8.369   4.160 -11.914  0.00  0.00     0.135 N 
BRANCH  14  15
ATOM     15  C   UNL d   1       9.582   3.461 -12.391  0.00  0.00     0.250 C 
BRANCH  15  16
ATOM     16  C   UNL d   1       9.421   2.693 -13.719  0.00  0.00     0.035 C 
ATOM     17  C   UNL d   1       9.426   3.680 -14.921  0.00  0.00     0.002 C 
ENDBRANCH  15  16
ENDBRANCH  14  15
BRANCH  14  18
ATOM     18  C   UNL d   1       7.231   4.167 -12.844  0.00  0.00     0.250 C 
BRANCH  18  19
ATOM     19  C   UNL d   1       5.939   3.726 -12.261  0.00  0.00     0.033 A 
ATOM     20  C   UNL d   1       4.780   3.635 -13.218  0.00  0.00     0.002 A 
ATOM     21  C   UNL d   1       5.343   2.374 -12.629  0.00  0.00     0.002 A 
ENDBRANCH  18  19
ENDBRANCH  14  18
ENDBRANCH   1  14
BRANCH   9  22
ATOM     22  C   UNL d   1      11.609   7.247  -4.486  0.00  0.00     0.314 C 
ATOM     23  N   UNL d   1      11.849   8.415  -3.902  0.00  0.00    -0.101 N 
ATOM     24  O   UNL d   1      11.757   6.224  -3.850  0.00  0.00    -0.262 OA
ENDBRANCH   9  22
TORSDOF 6
