REMARK  6 active torsions:
REMARK  status: ('A' for Active; 'I' for Inactive)
REMARK    1  A    between atoms: C_2  and  C_3 
REMARK    2  A    between atoms: C_2  and  C_20 
REMARK    3  A    between atoms: C_3  and  C_4 
REMARK    4  A    between atoms: C_4  and  C_5 
REMARK    5  A    between atoms: C_5  and  N_6 
REMARK    6  A    between atoms: N_10  and  C_11 
ROOT
ATOM      1  N   UNL d   1       9.568   4.005 -14.476  0.00  0.00     0.139 N 
ATOM      2  C   UNL d   1      10.544   4.884 -15.127  0.00  0.00     0.252 C 
ATOM      3  C   UNL d   1      10.114   5.280 -16.552  0.00  0.00     0.059 C 
ATOM      4  C   UNL d   1      10.569   4.301 -17.645  0.00  0.00     0.105 C 
ATOM      5  N   UNL d   1      10.230   2.892 -17.385  0.00  0.00    -0.332 N 
ATOM      6  C   UNL d   1       9.130   2.568 -16.479  0.00  0.00     0.138 C 
ATOM      7  C   UNL d   1       9.590   2.645 -15.011  0.00  0.00     0.274 C 
ENDROOT
BRANCH   1   8
ATOM      8  C   UNL d   1       9.824   3.964 -13.033  0.00  0.00     0.251 C 
BRANCH   8   9
ATOM      9  C   UNL d   1       8.702   4.704 -12.275  0.00  0.00     0.043 C 
BRANCH   9  10
ATOM     10  C   UNL d   1       9.216   5.896 -11.436  0.00  0.00     0.071 C 
BRANCH  10  11
ATOM     11  C   UNL d   1       9.188   5.713  -9.908  0.00  0.00     0.173 C 
ATOM     12  O   UNL d   1       8.672   4.715  -9.410  0.00  0.00    -0.291 OA
BRANCH  11  13
ATOM     13  C   UNL d   1       9.798   6.791  -9.076  0.00  0.00     0.035 A 
ATOM     14  C   UNL d   1      10.598   7.816  -9.636  0.00  0.00     0.005 A 
ATOM     15  C   UNL d   1      11.164   8.806  -8.810  0.00  0.00     0.030 A 
ATOM     16  C   UNL d   1      10.930   8.788  -7.420  0.00  0.00     0.140 A 
ATOM     17  C   UNL d   1      10.138   7.772  -6.853  0.00  0.00     0.030 A 
ATOM     18  F   UNL d   1      11.460   9.751  -6.630  0.00  0.00    -0.204 F 
ATOM     19  C   UNL d   1       9.579   6.777  -7.678  0.00  0.00     0.005 A 
ENDBRANCH  11  13
ENDBRANCH  10  11
ENDBRANCH   9  10
ENDBRANCH   8   9
ENDBRANCH   1   8
BRANCH   5  20
ATOM     20  C   UNL d   1      11.050   1.871 -17.917  0.00  0.00     0.140 A 
ATOM     21  N   UNL d   1      12.043   2.250 -18.758  0.00  0.00    -0.226 NA
ATOM     22  C   UNL d   1      12.848   1.316 -19.310  0.00  0.00     0.112 A 
ATOM     23  C   UNL d   1      12.695  -0.061 -19.073  0.00  0.00     0.077 A 
ATOM     24  C   UNL d   1      11.665  -0.471 -18.211  0.00  0.00     0.016 A 
ATOM     25 CL   UNL d   1      13.759  -1.211 -19.792  0.00  0.00    -0.081 Cl
ATOM     26  C   UNL d   1      10.844   0.500 -17.608  0.00  0.00     0.038 A 
ENDBRANCH   5  20
TORSDOF 6
