REMARK  7 active torsions:
REMARK  status: ('A' for Active; 'I' for Inactive)
REMARK    1  A    between atoms: C_6  and  C_7 
REMARK    2  A    between atoms: C_11  and  C_12 
REMARK       I    between atoms: C_12  and  N_14 
REMARK    3  A    between atoms: N_14  and  C_15 
REMARK    4  A    between atoms: C_18  and  C_19 
REMARK    5  A    between atoms: C_19  and  C_20 
REMARK    6  A    between atoms: C_20  and  N_21 
REMARK    7  A    between atoms: C_27  and  S_28 
ROOT
ATOM      1  C   UNL d   1      10.019   4.135 -13.924  0.00  0.00     0.107 C 
ATOM      2  C   UNL d   1      11.246   4.911 -14.463  0.00  0.00     0.024 C 
ATOM      3  C   UNL d   1      11.506   4.560 -15.921  0.00  0.00     0.002 C 
ATOM      4  C   UNL d   1      11.680   3.033 -16.134  0.00  0.00     0.002 C 
ATOM      5  C   UNL d   1      10.480   2.259 -15.561  0.00  0.00     0.002 C 
ATOM      6  C   UNL d   1      10.214   2.621 -14.102  0.00  0.00     0.024 C 
ENDROOT
BRANCH   4   7
ATOM      7  C   UNL d   1      11.931   2.651 -17.611  0.00  0.00     0.035 C 
BRANCH   7   8
ATOM      8  C   UNL d   1      10.702   2.985 -18.498  0.00  0.00     0.250 C 
BRANCH   8   9
ATOM      9  N   UNL d   1      11.018   3.155 -19.921  0.00  0.00     0.138 N 
ATOM     10  C   UNL d   1       9.779   3.299 -20.677  0.00  0.00     0.255 C 
ATOM     11  C   UNL d   1       8.798   4.357 -20.135  0.00  0.00     0.061 C 
ATOM     12  C   UNL d   1       9.219   5.802 -20.381  0.00  0.00    -0.023 A 
ATOM     13  C   UNL d   1      10.509   6.345 -20.096  0.00  0.00    -0.024 A 
ATOM     14  C   UNL d   1       8.208   6.651 -20.893  0.00  0.00     0.006 A 
ATOM     15  C   UNL d   1      11.680   5.573 -19.492  0.00  0.00     0.061 C 
ATOM     16  C   UNL d   1      10.754   7.721 -20.328  0.00  0.00    -0.004 A 
ATOM     17  C   UNL d   1      11.973   4.234 -20.199  0.00  0.00     0.255 C 
ATOM     18  C   UNL d   1       9.739   8.556 -20.849  0.00  0.00     0.011 A 
ATOM     19  C   UNL d   1       8.476   8.017 -21.133  0.00  0.00     0.084 A 
BRANCH  19  20
ATOM     20  S   UNL d   1       7.187   9.071 -21.769  0.00  0.00     0.191 S 
ATOM     21  C   UNL d   1       7.514   9.106 -23.569  0.00  0.00     0.145 C 
ATOM     22  O   UNL d   1       5.895   8.387 -21.551  0.00  0.00    -0.222 OA
ATOM     23  O   UNL d   1       7.415  10.412 -21.233  0.00  0.00    -0.222 OA
ENDBRANCH  19  20
ENDBRANCH   8   9
ENDBRANCH   7   8
ENDBRANCH   4   7
BRANCH   1  24
ATOM     24  N   UNL d   1       9.803   4.437 -12.525  0.00  0.00    -0.236 NA
ATOM     25  C   UNL d   1       9.448   5.645 -12.059  0.00  0.00     0.275 C 
ATOM     26  O   UNL d   1       9.240   6.645 -12.754  0.00  0.00    -0.266 OA
BRANCH  25  27
ATOM     27  C   UNL d   1       9.351   5.735 -10.577  0.00  0.00     0.058 C 
ATOM     28  C   UNL d   1       8.550   4.776  -9.887  0.00  0.00     0.005 C 
ATOM     29  C   UNL d   1       8.417   4.899  -8.494  0.00  0.00     0.000 C 
ATOM     30  C   UNL d   1       8.949   5.972  -7.790  0.00  0.00     0.002 C 
ATOM     31  C   UNL d   1       9.805   6.875  -8.429  0.00  0.00     0.018 C 
ATOM     32  C   UNL d   1       9.983   6.768  -9.844  0.00  0.00     0.006 C 
BRANCH  31  33
ATOM     33  C   UNL d   1      10.492   7.911  -7.661  0.00  0.00     0.080 A 
ATOM     34  N   UNL d   1      10.904   7.784  -6.329  0.00  0.00    -0.249 N 
ATOM     35  C   UNL d   1      10.860   6.694  -5.372  0.00  0.00     0.154 C 
ATOM     36  N   UNL d   1      11.476   8.939  -5.909  0.00  0.00    -0.168 NA
ATOM     37  C   UNL d   1      11.431   9.765  -6.939  0.00  0.00     0.122 A 
ATOM     38  C   UNL d   1      10.836   9.163  -8.086  0.00  0.00     0.041 A 
ENDBRANCH  31  33
ENDBRANCH  25  27
ENDBRANCH   1  24
TORSDOF 7
