REMARK  8 active torsions:
REMARK  status: ('A' for Active; 'I' for Inactive)
REMARK    1  A    between atoms: C_9  and  C_10 
REMARK       I    between atoms: C_10  and  N_12 
REMARK    2  A    between atoms: N_12  and  C_13 
REMARK    3  A    between atoms: C_13  and  C_14 
REMARK    4  A    between atoms: C_14  and  C_15 
REMARK    5  A    between atoms: C_15  and  C_16 
REMARK    6  A    between atoms: C_16  and  C_17 
REMARK    7  A    between atoms: C_17  and  N_18 
REMARK    8  A    between atoms: C_21  and  C_23 
ROOT
ATOM      1  C   UNL d   1       7.526   3.153 -13.450  0.00  0.00     0.026 C 
ENDROOT
BRANCH   1   2
ATOM      2  C   UNL d   1       6.840   2.794 -14.741  0.00  0.00     0.129 C 
BRANCH   2   3
ATOM      3  N   UNL d   1       6.234   1.480 -14.603  0.00  0.00    -0.234 NA
ATOM      4  C   UNL d   1       6.550   0.337 -15.219  0.00  0.00     0.282 C 
ATOM      5  O   UNL d   1       5.907  -0.688 -15.005  0.00  0.00    -0.265 OA
BRANCH   4   6
ATOM      6  C   UNL d   1       7.618   0.387 -16.233  0.00  0.00     0.101 A 
ATOM      7  C   UNL d   1       7.543   0.540 -17.599  0.00  0.00     0.082 A 
ATOM      8  C   UNL d   1       8.871   0.632 -18.201  0.00  0.00     0.034 A 
ATOM      9  N   UNL d   1       6.368   0.669 -18.373  0.00  0.00    -0.100 NA
ATOM     10  C   UNL d   1       9.349   0.795 -19.524  0.00  0.00    -0.018 A 
ATOM     11  C   UNL d   1       9.899   0.570 -17.198  0.00  0.00     0.111 A 
ATOM     12  C   UNL d   1      10.739   0.903 -19.762  0.00  0.00     0.011 A 
ATOM     13  C   UNL d   1       8.403   0.865 -20.711  0.00  0.00     0.031 C 
ATOM     14  C   UNL d   1      11.627   0.858 -18.670  0.00  0.00     0.060 A 
ATOM     15  C   UNL d   1      13.116   0.990 -18.894  0.00  0.00     0.052 C 
ATOM     16  N   UNL d   1      11.245   0.686 -17.393  0.00  0.00    -0.243 NA
ATOM     17  S   UNL d   1       9.240   0.342 -15.595  0.00  0.00    -0.062 SA
ENDBRANCH   4   6
ENDBRANCH   2   3
ENDBRANCH   1   2
BRANCH   1  18
ATOM     18  C   UNL d   1       8.093   4.558 -13.358  0.00  0.00     0.004 C 
BRANCH  18  19
ATOM     19  C   UNL d   1       8.738   4.745 -11.974  0.00  0.00     0.035 C 
BRANCH  19  20
ATOM     20  C   UNL d   1       9.321   6.159 -11.810  0.00  0.00     0.250 C 
BRANCH  20  21
ATOM     21  N   UNL d   1       9.855   6.436 -10.480  0.00  0.00     0.137 N 
ATOM     22  C   UNL d   1      10.109   7.883 -10.359  0.00  0.00     0.253 C 
ATOM     23  C   UNL d   1      10.739   8.252  -8.997  0.00  0.00     0.070 C 
ATOM     24  C   UNL d   1       9.889   7.746  -7.807  0.00  0.00     0.149 C 
ATOM     25  C   UNL d   1       9.532   6.266  -8.074  0.00  0.00     0.070 C 
ATOM     26  O   UNL d   1       8.694   8.488  -7.758  0.00  0.00    -0.221 OA
ATOM     27  C   UNL d   1       8.937   5.958  -9.442  0.00  0.00     0.253 C 
BRANCH  24  28
ATOM     28  C   UNL d   1      10.627   7.932  -6.465  0.00  0.00     0.005 A 
ATOM     29  C   UNL d   1      10.864   9.227  -5.968  0.00  0.00    -0.001 A 
ATOM     30  C   UNL d   1      11.488   9.413  -4.707  0.00  0.00     0.011 A 
ATOM     31  C   UNL d   1      11.889   8.294  -3.936  0.00  0.00     0.058 A 
ATOM     32  C   UNL d   1      11.669   7.001  -4.439  0.00  0.00     0.011 A 
ATOM     33 CL   UNL d   1      12.640   8.505  -2.389  0.00  0.00    -0.082 Cl
ATOM     34  C   UNL d   1      11.049   6.823  -5.685  0.00  0.00    -0.001 A 
ENDBRANCH  24  28
ENDBRANCH  20  21
ENDBRANCH  19  20
ENDBRANCH  18  19
ENDBRANCH   1  18
TORSDOF 8
