REMARK  4 active torsions:
REMARK  status: ('A' for Active; 'I' for Inactive)
REMARK    1  A    between atoms: S_2  and  C_4 
REMARK    2  A    between atoms: S_2  and  C_18 
REMARK    3  A    between atoms: C_7  and  C_8 
REMARK    4  A    between atoms: C_9  and  C_10 
ROOT
ATOM      1  C   UNL d   1       8.594   2.828 -14.563  0.00  0.00     0.107 A 
ATOM      2  C   UNL d   1       7.384   3.312 -14.034  0.00  0.00     0.015 A 
ATOM      3  C   UNL d   1       7.431   4.107 -12.874  0.00  0.00     0.020 A 
ATOM      4  C   UNL d   1       8.689   4.426 -12.313  0.00  0.00     0.082 A 
ATOM      5  N   UNL d   1       9.855   4.020 -12.873  0.00  0.00    -0.243 NA
ATOM      6  C   UNL d   1       9.804   3.207 -13.953  0.00  0.00     0.110 A 
ENDROOT
BRANCH   1   7
ATOM      7  S   UNL d   1       8.597   1.774 -16.010  0.00  0.00     0.214 S 
ATOM      8  O   UNL d   1       8.322   2.636 -17.170  0.00  0.00    -0.217 OA
ATOM      9  O   UNL d   1       9.819   0.955 -15.977  0.00  0.00    -0.217 OA
BRANCH   7  10
ATOM     10  C   UNL d   1       7.210   0.673 -15.729  0.00  0.00     0.115 A 
ATOM     11  C   UNL d   1       6.215   0.454 -16.711  0.00  0.00     0.151 A 
ATOM     12  C   UNL d   1       5.137  -0.405 -16.425  0.00  0.00     0.030 A 
ATOM     13  F   UNL d   1       6.260   1.067 -17.919  0.00  0.00    -0.203 F 
ATOM     14  C   UNL d   1       5.043  -1.034 -15.169  0.00  0.00     0.002 A 
ATOM     15  C   UNL d   1       6.037  -0.811 -14.196  0.00  0.00     0.001 A 
ATOM     16  C   UNL d   1       7.129   0.025 -14.480  0.00  0.00     0.014 A 
ENDBRANCH   7  10
ENDBRANCH   1   7
BRANCH   4  17
ATOM     17  C   UNL d   1       8.737   5.269 -11.111  0.00  0.00     0.019 C 
ATOM     18  C   UNL d   1       9.782   6.028 -10.733  0.00  0.00     0.002 C 
BRANCH  18  19
ATOM     19  C   UNL d   1       9.858   6.798  -9.484  0.00  0.00     0.003 A 
ATOM     20  C   UNL d   1      10.689   7.932  -9.402  0.00  0.00     0.021 A 
ATOM     21  C   UNL d   1      10.689   8.692  -8.214  0.00  0.00     0.099 A 
ATOM     22  N   UNL d   1       9.926   8.396  -7.140  0.00  0.00    -0.242 NA
ATOM     23  C   UNL d   1       9.125   7.315  -7.226  0.00  0.00     0.099 A 
ATOM     24  C   UNL d   1       9.060   6.486  -8.360  0.00  0.00     0.021 A 
ENDBRANCH  18  19
ENDBRANCH   4  17
TORSDOF 4
