REMARK  4 active torsions:
REMARK  status: ('A' for Active; 'I' for Inactive)
REMARK    1  A    between atoms: C_9  and  C_10 
REMARK    2  A    between atoms: C_11  and  C_12 
REMARK    3  A    between atoms: C_15  and  S_16 
REMARK    4  A    between atoms: S_16  and  C_19 
ROOT
ATOM      1  N   UNL d   1      11.859  10.868  -6.413  0.00  0.00    -0.191 NA
ATOM      2  C   UNL d   1      11.850  10.010  -5.645  0.00  0.00     0.101 C 
ATOM      3  C   UNL d   1      11.847   8.914  -4.712  0.00  0.00     0.070 A 
ATOM      4  C   UNL d   1      12.239   9.052  -3.353  0.00  0.00     0.040 A 
ATOM      5  C   UNL d   1      12.246   7.930  -2.526  0.00  0.00     0.141 A 
ATOM      6  F   UNL d   1      12.650   8.051  -1.242  0.00  0.00    -0.204 F 
ATOM      7  C   UNL d   1      11.869   6.684  -3.040  0.00  0.00     0.030 A 
ATOM      8  C   UNL d   1      11.450   6.566  -4.377  0.00  0.00     0.003 A 
ATOM      9  C   UNL d   1      11.421   7.677  -5.236  0.00  0.00     0.010 A 
ENDROOT
BRANCH   9  10
ATOM     10  C   UNL d   1      10.933   7.569  -6.646  0.00  0.00     0.002 C 
ATOM     11  C   UNL d   1      10.379   6.481  -7.194  0.00  0.00     0.019 C 
BRANCH  11  12
ATOM     12  C   UNL d   1       9.931   6.361  -8.573  0.00  0.00     0.082 A 
ATOM     13  N   UNL d   1       9.973   7.457  -9.369  0.00  0.00    -0.243 NA
ATOM     14  C   UNL d   1       9.534   7.320 -10.640  0.00  0.00     0.110 A 
ATOM     15  C   UNL d   1       9.117   6.058 -11.149  0.00  0.00     0.107 A 
ATOM     16  C   UNL d   1       9.158   4.923 -10.350  0.00  0.00     0.015 A 
ATOM     17  C   UNL d   1       9.543   5.081  -9.027  0.00  0.00     0.020 A 
BRANCH  15  18
ATOM     18  S   UNL d   1       8.653   5.894 -12.832  0.00  0.00     0.214 S 
ATOM     19  O   UNL d   1       7.845   7.070 -13.136  0.00  0.00    -0.217 OA
ATOM     20  O   UNL d   1       9.893   5.553 -13.566  0.00  0.00    -0.217 OA
BRANCH  18  21
ATOM     21  C   UNL d   1       7.537   4.525 -12.969  0.00  0.00     0.115 A 
ATOM     22  C   UNL d   1       6.366   4.569 -12.204  0.00  0.00     0.151 A 
ATOM     23  C   UNL d   1       5.524   3.443 -12.227  0.00  0.00     0.030 A 
ATOM     24  F   UNL d   1       6.085   5.670 -11.474  0.00  0.00    -0.203 F 
ATOM     25  C   UNL d   1       5.787   2.358 -13.074  0.00  0.00     0.002 A 
ATOM     26  C   UNL d   1       6.888   2.384 -13.943  0.00  0.00     0.001 A 
ATOM     27  C   UNL d   1       7.796   3.462 -13.856  0.00  0.00     0.014 A 
ENDBRANCH  18  21
ENDBRANCH  15  18
ENDBRANCH  11  12
ENDBRANCH   9  10
TORSDOF 4
