REMARK  7 active torsions:
REMARK  status: ('A' for Active; 'I' for Inactive)
REMARK    1  A    between atoms: O_2  and  C_3 
REMARK    2  A    between atoms: C_8  and  N_9 
REMARK    3  A    between atoms: N_12  and  C_13 
REMARK    4  A    between atoms: C_13  and  C_14 
REMARK    5  A    between atoms: C_14  and  C_15 
REMARK    6  A    between atoms: C_15  and  N_16 
REMARK       I    between atoms: N_16  and  C_17 
REMARK       I    between atoms: C_17  and  N_19 
REMARK    7  A    between atoms: N_20  and  C_21 
ROOT
ATOM      1  C   UNL d   1       8.657   4.428 -12.967  0.00  0.00     0.253 C 
ENDROOT
BRANCH   1   2
ATOM      2  N   UNL d   1       9.325   3.274 -13.573  0.00  0.00     0.141 N 
ATOM      3  C   UNL d   1       8.350   2.463 -14.314  0.00  0.00     0.274 C 
ATOM      4  C   UNL d   1       9.024   1.195 -14.882  0.00  0.00     0.137 C 
ATOM      5  N   UNL d   1      10.147   1.575 -15.729  0.00  0.00    -0.343 N 
ATOM      6  C   UNL d   1      11.112   2.465 -15.093  0.00  0.00     0.137 C 
ATOM      7  C   UNL d   1      10.394   3.692 -14.485  0.00  0.00     0.274 C 
BRANCH   5   8
ATOM      8  C   UNL d   1      10.263   1.190 -17.081  0.00  0.00     0.079 A 
ATOM      9  C   UNL d   1       9.141   1.162 -17.956  0.00  0.00     0.110 A 
ATOM     10  C   UNL d   1       9.314   0.710 -19.289  0.00  0.00     0.026 A 
ATOM     11  C   UNL d   1      10.580   0.326 -19.767  0.00  0.00     0.002 A 
ATOM     12  C   UNL d   1      11.693   0.386 -18.912  0.00  0.00     0.002 A 
ATOM     13  C   UNL d   1      11.530   0.813 -17.579  0.00  0.00     0.019 A 
BRANCH   9  14
ATOM     14  O   UNL d   1       7.926   1.626 -17.490  0.00  0.00    -0.327 OA
ATOM     15  C   UNL d   1       6.745   1.189 -18.141  0.00  0.00     0.181 C 
ENDBRANCH   9  14
ENDBRANCH   5   8
ENDBRANCH   1   2
BRANCH   1  16
ATOM     16  C   UNL d   1       9.412   4.917 -11.718  0.00  0.00     0.062 C 
BRANCH  16  17
ATOM     17  C   UNL d   1       8.549   5.780 -10.787  0.00  0.00     0.133 C 
BRANCH  17  18
ATOM     18  N   UNL d   1       9.190   5.996  -9.494  0.00  0.00    -0.216 NA
ATOM     19  C   UNL d   1       9.870   7.098  -9.141  0.00  0.00     0.382 C 
ATOM     20  O   UNL d   1      10.149   8.025  -9.906  0.00  0.00    -0.241 OA
ATOM     21  N   UNL d   1      10.261   7.099  -7.695  0.00  0.00    -0.088 NA
ATOM     22  N   UNL d   1      10.738   8.161  -7.247  0.00  0.00    -0.144 NA
BRANCH  22  23
ATOM     23  C   UNL d   1      11.171   8.135  -5.896  0.00  0.00     0.103 A 
ATOM     24  C   UNL d   1      11.451   6.927  -5.215  0.00  0.00     0.023 A 
ATOM     25  C   UNL d   1      11.864   6.938  -3.868  0.00  0.00     0.031 A 
ATOM     26  C   UNL d   1      12.005   8.161  -3.189  0.00  0.00     0.140 A 
ATOM     27  C   UNL d   1      11.736   9.367  -3.861  0.00  0.00     0.031 A 
ATOM     28  F   UNL d   1      12.393   8.173  -1.893  0.00  0.00    -0.204 F 
ATOM     29  C   UNL d   1      11.330   9.358  -5.212  0.00  0.00     0.023 A 
ENDBRANCH  22  23
ENDBRANCH  17  18
ENDBRANCH  16  17
ENDBRANCH   1  16
TORSDOF 7
