REMARK  4 active torsions:
REMARK  status: ('A' for Active; 'I' for Inactive)
REMARK    1  A    between atoms: C_5  and  C_6 
REMARK    2  A    between atoms: C_6  and  C_8 
REMARK    3  A    between atoms: C_8  and  C_10 
REMARK    4  A    between atoms: C_10  and  N_11 
ROOT
ATOM      1  C   UNL d   1      10.677   1.492 -16.088  0.00  0.00     0.174 C 
ATOM      2  O   UNL d   1      11.079   0.705 -16.942  0.00  0.00    -0.291 OA
ENDROOT
BRANCH   1   3
ATOM      3  C   UNL d   1       9.302   1.419 -15.505  0.00  0.00     0.035 A 
ATOM      4  C   UNL d   1       8.743   2.458 -14.721  0.00  0.00     0.003 A 
ATOM      5  C   UNL d   1       7.506   2.291 -14.096  0.00  0.00    -0.004 A 
ATOM      6  C   UNL d   1       6.730   1.125 -14.332  0.00  0.00    -0.022 A 
ATOM      7  C   UNL d   1       5.381   1.000 -13.683  0.00  0.00     0.031 C 
ATOM      8  C   UNL d   1       7.230   0.128 -15.192  0.00  0.00    -0.004 A 
ATOM      9  C   UNL d   1       8.508   0.256 -15.765  0.00  0.00     0.003 A 
ENDBRANCH   1   3
BRANCH   1  10
ATOM     10  C   UNL d   1      11.639   2.612 -15.641  0.00  0.00     0.095 C 
ATOM     11  C   UNL d   1      11.753   2.786 -14.083  0.00  0.00     0.010 C 
BRANCH  10  12
ATOM     12  C   UNL d   1      11.302   3.928 -16.382  0.00  0.00     0.258 C 
BRANCH  12  13
ATOM     13  N   UNL d   1      12.412   4.878 -16.375  0.00  0.00     0.137 N 
ATOM     14  C   UNL d   1      13.454   4.456 -17.321  0.00  0.00     0.250 C 
ATOM     15  C   UNL d   1      14.645   5.424 -17.278  0.00  0.00     0.035 C 
ATOM     16  C   UNL d   1      14.200   6.851 -17.612  0.00  0.00     0.004 C 
ATOM     17  C   UNL d   1      13.034   7.248 -16.700  0.00  0.00     0.035 C 
ATOM     18  C   UNL d   1      11.908   6.201 -16.765  0.00  0.00     0.250 C 
ENDBRANCH  12  13
ENDBRANCH  10  12
ENDBRANCH   1  10
TORSDOF 4
