REMARK  1 active torsions:
REMARK  status: ('A' for Active; 'I' for Inactive)
REMARK    1  A    between atoms: N_2  and  C_3 
ROOT
ATOM      1  C   UNL d   1      11.050   7.664  -6.474  0.00  0.00     0.206 A 
ATOM      2  N   UNL d   1      10.880   8.731  -7.294  0.00  0.00    -0.127 NA
ATOM      3  N   UNL d   1      11.064   9.971  -6.837  0.00  0.00    -0.145 NA
ATOM      4  C   UNL d   1      11.371  10.188  -5.546  0.00  0.00     0.122 A 
ATOM      5  C   UNL d   1      11.588   9.145  -4.631  0.00  0.00     0.024 A 
ATOM      6  C   UNL d   1      11.960   9.387  -3.291  0.00  0.00     0.002 A 
ATOM      7  C   UNL d   1      12.209   8.301  -2.428  0.00  0.00     0.000 A 
ATOM      8  C   UNL d   1      12.041   6.983  -2.895  0.00  0.00     0.000 A 
ATOM      9  C   UNL d   1      11.646   6.750  -4.228  0.00  0.00     0.003 A 
ATOM     10  C   UNL d   1      11.428   7.828  -5.112  0.00  0.00     0.041 A 
ENDROOT
BRANCH   1  11
ATOM     11  N   UNL d   1      10.879   6.400  -7.052  0.00  0.00    -0.106 NA
ATOM     12  N   UNL d   1      10.258   6.117  -8.285  0.00  0.00    -0.021 N 
ENDBRANCH   1  11
TORSDOF 1
