REMARK  4 active torsions:
REMARK  status: ('A' for Active; 'I' for Inactive)
REMARK    1  A    between atoms: C_8  and  C_9 
REMARK    2  A    between atoms: C_9  and  C_10 
REMARK    3  A    between atoms: C_10  and  N_11 
REMARK    4  A    between atoms: N_14  and  C_15 
ROOT
ATOM      1  N   UNL d   1       8.627   4.568 -12.796  0.00  0.00     0.141 N 
ATOM      2  C   UNL d   1       8.621   6.027 -12.973  0.00  0.00     0.274 C 
ATOM      3  C   UNL d   1       8.287   6.738 -11.657  0.00  0.00     0.138 C 
ATOM      4  N   UNL d   1       9.211   6.316 -10.621  0.00  0.00    -0.330 N 
ATOM      5  C   UNL d   1       9.354   4.885 -10.446  0.00  0.00     0.138 C 
ATOM      6  C   UNL d   1       9.667   4.241 -11.812  0.00  0.00     0.274 C 
ENDROOT
BRANCH   1   7
ATOM      7  C   UNL d   1       8.942   3.961 -14.083  0.00  0.00     0.255 C 
BRANCH   7   8
ATOM      8  C   UNL d   1       8.799   2.430 -14.049  0.00  0.00     0.068 C 
BRANCH   8   9
ATOM      9  C   UNL d   1       9.157   1.766 -15.375  0.00  0.00     0.050 A 
ATOM     10  C   UNL d   1       8.255   1.079 -16.131  0.00  0.00     0.061 A 
ATOM     11  C   UNL d   1       6.800   0.907 -15.732  0.00  0.00     0.052 C 
ATOM     12  N   UNL d   1       8.617   0.502 -17.350  0.00  0.00    -0.237 NA
ATOM     13  C   UNL d   1       9.838   0.600 -17.756  0.00  0.00     0.122 A 
ATOM     14  C   UNL d   1      10.290   0.058 -19.106  0.00  0.00     0.064 C 
ATOM     15  N   UNL d   1      10.846   1.253 -17.013  0.00  0.00    -0.285 N 
ATOM     16  C   UNL d   1      11.168   1.061 -19.874  0.00  0.00     0.010 C 
ATOM     17  C   UNL d   1      12.306   1.641 -19.016  0.00  0.00     0.025 C 
ATOM     18  C   UNL d   1      12.225   1.205 -17.542  0.00  0.00     0.110 C 
ATOM     19  C   UNL d   1      10.563   1.846 -15.819  0.00  0.00     0.259 A 
ATOM     20  O   UNL d   1      11.440   2.405 -15.153  0.00  0.00    -0.267 OA
ENDBRANCH   8   9
ENDBRANCH   7   8
ENDBRANCH   1   7
BRANCH   4  21
ATOM     21  C   UNL d   1       9.877   7.249  -9.815  0.00  0.00     0.144 A 
ATOM     22  C   UNL d   1       9.864   7.220  -8.403  0.00  0.00     0.058 A 
ATOM     23  C   UNL d   1      10.659   8.230  -7.777  0.00  0.00     0.115 A 
ATOM     24  C   UNL d   1       9.180   6.396  -7.441  0.00  0.00     0.012 A 
ATOM     25  N   UNL d   1      11.407   9.170  -8.408  0.00  0.00    -0.217 NA
ATOM     26  S   UNL d   1      10.571   8.139  -6.040  0.00  0.00    -0.067 SA
ATOM     27  C   UNL d   1      11.299   9.070  -9.728  0.00  0.00     0.201 A 
ATOM     28  N   UNL d   1      10.589   8.206 -10.441  0.00  0.00    -0.207 NA
ATOM     29  C   UNL d   1       9.481   6.795  -6.162  0.00  0.00     0.037 A 
ENDBRANCH   4  21
TORSDOF 4
