REMARK  4 active torsions:
REMARK  status: ('A' for Active; 'I' for Inactive)
REMARK    1  A    between atoms: C_5  and  C_6 
REMARK    2  A    between atoms: C_8  and  C_9 
REMARK    3  A    between atoms: N_12  and  C_13 
REMARK    4  A    between atoms: C_13  and  C_14 
ROOT
ATOM      1  C   UNL d   1       8.889   6.277 -10.910  0.00  0.00     0.046 C 
ATOM      2  C   UNL d   1       9.714   7.566 -11.056  0.00  0.00     0.041 C 
ATOM      3  C   UNL d   1       9.704   8.504  -9.834  0.00  0.00     0.251 C 
ATOM      4  N   UNL d   1      10.038   7.750  -8.613  0.00  0.00     0.141 N 
ATOM      5  C   UNL d   1       9.046   6.677  -8.469  0.00  0.00     0.251 C 
ATOM      6  C   UNL d   1       9.181   5.644  -9.560  0.00  0.00     0.041 C 
ENDROOT
BRANCH   1   7
ATOM      7  C   UNL d   1       9.054   5.322 -12.059  0.00  0.00     0.082 A 
ATOM      8  C   UNL d   1       8.065   4.454 -12.628  0.00  0.00     0.037 A 
ATOM      9  C   UNL d   1       8.772   3.757 -13.575  0.00  0.00     0.104 A 
ATOM     10  N   UNL d   1      10.072   4.199 -13.500  0.00  0.00    -0.148 NA
ATOM     11  N   UNL d   1      10.254   5.138 -12.588  0.00  0.00    -0.152 NA
BRANCH   9  12
ATOM     12  C   UNL d   1       8.370   2.740 -14.522  0.00  0.00     0.019 A 
ATOM     13  C   UNL d   1       9.257   2.335 -15.551  0.00  0.00     0.002 A 
ATOM     14  C   UNL d   1       8.865   1.362 -16.482  0.00  0.00     0.011 A 
ATOM     15  C   UNL d   1       7.590   0.780 -16.399  0.00  0.00     0.058 A 
ATOM     16 CL   UNL d   1       7.103  -0.395 -17.564  0.00  0.00    -0.082 Cl
ATOM     17  C   UNL d   1       6.705   1.165 -15.377  0.00  0.00     0.011 A 
ATOM     18  C   UNL d   1       7.093   2.150 -14.441  0.00  0.00     0.002 A 
ENDBRANCH   9  12
ENDBRANCH   1   7
BRANCH   4  19
ATOM     19  C   UNL d   1      10.002   8.685  -7.486  0.00  0.00     0.278 C 
BRANCH  19  20
ATOM     20  C   UNL d   1      10.780   8.264  -6.231  0.00  0.00     0.021 A 
ATOM     21  C   UNL d   1      11.632   9.164  -5.551  0.00  0.00     0.056 A 
ATOM     22  C   UNL d   1      12.359   8.768  -4.381  0.00  0.00     0.011 A 
ATOM     23 CL   UNL d   1      11.852  10.790  -6.078  0.00  0.00    -0.083 Cl
ATOM     24  C   UNL d   1      12.255   7.443  -3.898  0.00  0.00     0.001 A 
ATOM     25  C   UNL d   1      11.402   6.600  -4.589  0.00  0.00    -0.000 A 
ATOM     26  C   UNL d   1      10.657   6.964  -5.690  0.00  0.00    -0.002 A 
ENDBRANCH  19  20
ENDBRANCH   4  19
TORSDOF 4
