REMARK  7 active torsions:
REMARK  status: ('A' for Active; 'I' for Inactive)
REMARK    1  A    between atoms: O_2  and  C_3 
REMARK    2  A    between atoms: N_13  and  C_14 
REMARK    3  A    between atoms: C_14  and  C_15 
REMARK    4  A    between atoms: C_15  and  C_16 
REMARK    5  A    between atoms: C_16  and  C_17 
REMARK    6  A    between atoms: C_17  and  N_18 
REMARK       I    between atoms: N_18  and  C_19 
REMARK    7  A    between atoms: C_19  and  C_21 
ROOT
ATOM      1  C   UNL d   1       8.041   0.588 -16.741  0.00  0.00     0.094 A 
ATOM      2  C   UNL d   1       9.413   0.280 -16.802  0.00  0.00     0.026 A 
ATOM      3  C   UNL d   1      10.355   0.989 -16.024  0.00  0.00     0.026 A 
ATOM      4  C   UNL d   1       9.935   2.033 -15.168  0.00  0.00     0.092 A 
ATOM      5  C   UNL d   1       8.562   2.326 -15.087  0.00  0.00     0.031 A 
ATOM      6  C   UNL d   1       7.627   1.623 -15.870  0.00  0.00     0.024 A 
ATOM      7  C   UNL d   1       8.038   3.413 -14.187  0.00  0.00     0.173 C 
ATOM      8  O   UNL d   1       6.770   3.074 -13.636  0.00  0.00    -0.348 OA
ATOM      9  C   UNL d   1       6.228   4.116 -12.839  0.00  0.00     0.178 C 
ATOM     10  C   UNL d   1       7.220   4.526 -11.750  0.00  0.00     0.282 C 
ATOM     11  N   UNL d   1       8.540   4.885 -12.279  0.00  0.00     0.143 N 
ATOM     12  C   UNL d   1       9.047   3.757 -13.086  0.00  0.00     0.280 C 
ATOM     13  C   UNL d   1      10.426   3.925 -13.773  0.00  0.00     0.185 C 
ATOM     14  O   UNL d   1      10.865   2.723 -14.418  0.00  0.00    -0.329 OA
ENDROOT
BRANCH  11  15
ATOM     15  C   UNL d   1       9.453   5.261 -11.198  0.00  0.00     0.251 C 
BRANCH  15  16
ATOM     16  C   UNL d   1       8.991   6.389 -10.258  0.00  0.00     0.037 C 
BRANCH  16  17
ATOM     17  C   UNL d   1       9.913   6.595  -9.052  0.00  0.00     0.029 C 
BRANCH  17  18
ATOM     18  C   UNL d   1       9.362   7.666  -8.093  0.00  0.00     0.129 C 
BRANCH  18  19
ATOM     19  N   UNL d   1      10.047   7.617  -6.810  0.00  0.00    -0.234 NA
ATOM     20  C   UNL d   1      10.854   8.561  -6.311  0.00  0.00     0.275 C 
ATOM     21  O   UNL d   1      11.127   9.607  -6.903  0.00  0.00    -0.266 OA
BRANCH  20  22
ATOM     22  C   UNL d   1      11.355   8.312  -4.919  0.00  0.00     0.058 A 
ATOM     23  C   UNL d   1      11.611   9.403  -4.062  0.00  0.00     0.005 A 
ATOM     24  C   UNL d   1      12.076   9.185  -2.751  0.00  0.00     0.000 A 
ATOM     25  C   UNL d   1      12.289   7.878  -2.286  0.00  0.00     0.000 A 
ATOM     26  C   UNL d   1      12.050   6.785  -3.136  0.00  0.00     0.000 A 
ATOM     27  C   UNL d   1      11.589   6.997  -4.448  0.00  0.00     0.005 A 
ENDBRANCH  20  22
ENDBRANCH  18  19
ENDBRANCH  17  18
ENDBRANCH  16  17
ENDBRANCH  15  16
ENDBRANCH  11  15
BRANCH   1  28
ATOM     28  O   UNL d   1       7.157  -0.121 -17.531  0.00  0.00    -0.328 OA
ATOM     29  C   UNL d   1       5.774   0.217 -17.420  0.00  0.00     0.181 C 
ENDBRANCH   1  28
TORSDOF 7
