REMARK  8 active torsions:
REMARK  status: ('A' for Active; 'I' for Inactive)
REMARK    1  A    between atoms: O_2  and  C_3 
REMARK    2  A    between atoms: C_8  and  N_9 
REMARK    3  A    between atoms: N_12  and  C_13 
REMARK    4  A    between atoms: C_13  and  C_14 
REMARK    5  A    between atoms: C_14  and  C_15 
REMARK    6  A    between atoms: C_15  and  C_16 
REMARK    7  A    between atoms: N_18  and  C_19 
REMARK    8  A    between atoms: C_22  and  S_23 
ROOT
ATOM      1  C   UNL d   1       6.372   2.777 -14.470  0.00  0.00     0.251 C 
ENDROOT
BRANCH   1   2
ATOM      2  N   UNL d   1       6.991   1.621 -15.123  0.00  0.00     0.141 N 
ATOM      3  C   UNL d   1       7.872   1.962 -16.248  0.00  0.00     0.274 C 
ATOM      4  C   UNL d   1       8.559   0.710 -16.849  0.00  0.00     0.137 C 
ATOM      5  N   UNL d   1       7.547  -0.288 -17.195  0.00  0.00    -0.343 N 
ATOM      6  C   UNL d   1       6.596  -0.609 -16.135  0.00  0.00     0.137 C 
ATOM      7  C   UNL d   1       5.971   0.682 -15.608  0.00  0.00     0.274 C 
BRANCH   5   8
ATOM      8  C   UNL d   1       7.456  -0.807 -18.500  0.00  0.00     0.079 A 
ATOM      9  C   UNL d   1       6.210  -0.912 -19.202  0.00  0.00     0.110 A 
ATOM     10  C   UNL d   1       6.184  -1.497 -20.496  0.00  0.00     0.026 A 
ATOM     11  C   UNL d   1       7.369  -1.934 -21.107  0.00  0.00     0.002 A 
ATOM     12  C   UNL d   1       8.600  -1.776 -20.453  0.00  0.00     0.002 A 
ATOM     13  C   UNL d   1       8.636  -1.233 -19.152  0.00  0.00     0.019 A 
BRANCH   9  14
ATOM     14  O   UNL d   1       5.085  -0.404 -18.594  0.00  0.00    -0.327 OA
ATOM     15  C   UNL d   1       3.854  -0.437 -19.276  0.00  0.00     0.181 C 
ENDBRANCH   9  14
ENDBRANCH   5   8
ENDBRANCH   1   2
BRANCH   1  16
ATOM     16  C   UNL d   1       7.392   3.589 -13.659  0.00  0.00     0.042 C 
BRANCH  16  17
ATOM     17  C   UNL d   1       6.721   4.729 -12.888  0.00  0.00     0.051 C 
BRANCH  17  18
ATOM     18  C   UNL d   1       7.755   5.492 -12.116  0.00  0.00     0.101 A 
ATOM     19  N   UNL d   1       8.629   6.389 -12.705  0.00  0.00    -0.133 NA
ATOM     20  N   UNL d   1       9.395   6.915 -11.795  0.00  0.00    -0.060 NA
ATOM     21  N   UNL d   1       9.059   6.364 -10.598  0.00  0.00    -0.209 N 
ATOM     22  C   UNL d   1       8.028   5.455 -10.782  0.00  0.00     0.119 A 
BRANCH  21  23
ATOM     23  C   UNL d   1       9.631   6.796  -9.366  0.00  0.00     0.085 A 
ATOM     24  C   UNL d   1       9.098   6.360  -8.121  0.00  0.00     0.020 A 
ATOM     25  C   UNL d   1       9.654   6.803  -6.899  0.00  0.00     0.008 A 
ATOM     26  C   UNL d   1      10.747   7.685  -6.898  0.00  0.00     0.025 A 
ATOM     27  C   UNL d   1      11.273   8.136  -8.125  0.00  0.00     0.008 A 
ATOM     28  C   UNL d   1      10.719   7.693  -9.346  0.00  0.00     0.020 A 
BRANCH  26  29
ATOM     29  S   UNL d   1      11.418   8.269  -5.368  0.00  0.00    -0.113 SA
ATOM     30  C   UNL d   1      11.609   6.805  -4.310  0.00  0.00     0.074 C 
ENDBRANCH  26  29
ENDBRANCH  21  23
ENDBRANCH  17  18
ENDBRANCH  16  17
ENDBRANCH   1  16
TORSDOF 8
