REMARK  6 active torsions:
REMARK  status: ('A' for Active; 'I' for Inactive)
REMARK    1  A    between atoms: C_2  and  C_3 
REMARK    2  A    between atoms: N_13  and  C_14 
REMARK    3  A    between atoms: C_14  and  C_15 
REMARK    4  A    between atoms: C_15  and  C_17 
REMARK    5  A    between atoms: C_17  and  N_18 
REMARK    6  A    between atoms: N_21  and  C_22 
ROOT
ATOM      1  C   UNL d   1       9.107   5.025 -11.547  0.00  0.00     0.208 C 
ATOM      2  O   UNL d   1       7.894   4.477 -11.087  0.00  0.00    -0.219 OA
ENDROOT
BRANCH   1   3
ATOM      3  C   UNL d   1       8.963   5.197 -13.078  0.00  0.00     0.148 C 
BRANCH   3   4
ATOM      4  N   UNL d   1       9.276   3.958 -13.815  0.00  0.00    -0.247 N 
ATOM      5  C   UNL d   1      10.528   3.526 -14.041  0.00  0.00     0.348 A 
ATOM      6  N   UNL d   1      10.456   2.359 -14.697  0.00  0.00    -0.209 NA
ATOM      7  O   UNL d   1      11.564   4.111 -13.724  0.00  0.00    -0.245 OA
ATOM      8  C   UNL d   1       9.090   1.954 -15.002  0.00  0.00     0.179 A 
ATOM      9  C   UNL d   1       8.769   0.597 -14.341  0.00  0.00     0.039 C 
ATOM     10  C   UNL d   1       8.367   3.098 -14.300  0.00  0.00     0.265 A 
ATOM     11  O   UNL d   1       7.141   3.180 -14.206  0.00  0.00    -0.269 OA
BRANCH   8  12
ATOM     12  C   UNL d   1       8.784   1.975 -16.511  0.00  0.00     0.006 A 
ATOM     13  C   UNL d   1       9.538   2.783 -17.399  0.00  0.00     0.000 A 
ATOM     14  C   UNL d   1       9.262   2.785 -18.779  0.00  0.00     0.029 A 
ATOM     15  C   UNL d   1       8.233   1.978 -19.294  0.00  0.00     0.140 A 
ATOM     16  C   UNL d   1       7.467   1.181 -18.426  0.00  0.00     0.029 A 
ATOM     17  F   UNL d   1       7.952   1.996 -20.616  0.00  0.00    -0.204 F 
ATOM     18  C   UNL d   1       7.738   1.182 -17.045  0.00  0.00     0.000 A 
ENDBRANCH   8  12
ENDBRANCH   3   4
ENDBRANCH   1   3
BRANCH   1  19
ATOM     19  C   UNL d   1       9.362   6.372 -10.847  0.00  0.00     0.285 C 
BRANCH  19  20
ATOM     20  N   UNL d   1       9.825   6.260  -9.461  0.00  0.00     0.144 N 
ATOM     21  C   UNL d   1       8.837   6.788  -8.504  0.00  0.00     0.274 C 
ATOM     22  C   UNL d   1       9.266   6.678  -7.036  0.00  0.00     0.137 C 
ATOM     23  N   UNL d   1      10.564   7.306  -6.884  0.00  0.00    -0.344 N 
ATOM     24  C   UNL d   1      11.585   6.881  -7.800  0.00  0.00     0.137 C 
ATOM     25  C   UNL d   1      11.060   7.017  -9.250  0.00  0.00     0.274 C 
BRANCH  23  26
ATOM     26  C   UNL d   1      10.852   8.213  -5.879  0.00  0.00     0.056 A 
ATOM     27  C   UNL d   1      11.470   7.861  -4.647  0.00  0.00     0.015 A 
ATOM     28  C   UNL d   1      11.681   8.816  -3.638  0.00  0.00     0.001 A 
ATOM     29  C   UNL d   1      11.845   6.545  -4.364  0.00  0.00     0.001 A 
ATOM     30  C   UNL d   1      11.280  10.111  -3.856  0.00  0.00     0.000 A 
ATOM     31  C   UNL d   1      12.241   8.538  -2.385  0.00  0.00     0.000 A 
ATOM     32  C   UNL d   1      10.677  10.487  -5.059  0.00  0.00     0.002 A 
ATOM     33  C   UNL d   1      10.494   9.555  -6.093  0.00  0.00     0.017 A 
ATOM     34  C   UNL d   1      12.587   7.224  -2.111  0.00  0.00     0.000 A 
ATOM     35  C   UNL d   1      12.397   6.264  -3.103  0.00  0.00     0.000 A 
ENDBRANCH  23  26
ENDBRANCH  19  20
ENDBRANCH   1  19
TORSDOF 6
