REMARK  7 active torsions:
REMARK  status: ('A' for Active; 'I' for Inactive)
REMARK    1  A    between atoms: C_2  and  C_3 
REMARK    2  A    between atoms: C_3  and  N_4 
REMARK    3  A    between atoms: N_4  and  C_5 
REMARK    4  A    between atoms: N_4  and  C_8 
REMARK    5  A    between atoms: C_5  and  C_6 
REMARK    6  A    between atoms: C_16  and  C_17 
REMARK    7  A    between atoms: C_20  and  C_21 
ROOT
ATOM      1  C   UNL d   1      10.430   2.974 -15.279  0.00  0.00     0.253 C 
ATOM      2  C   UNL d   1      10.931   3.184 -13.841  0.00  0.00     0.182 C 
ATOM      3  O   UNL d   1      10.132   4.139 -13.139  0.00  0.00    -0.329 OA
ATOM      4  C   UNL d   1       8.776   3.950 -13.200  0.00  0.00     0.090 A 
ATOM      5  C   UNL d   1       8.153   3.072 -14.153  0.00  0.00     0.002 A 
ATOM      6  C   UNL d   1       6.758   2.922 -14.152  0.00  0.00    -0.002 A 
ATOM      7  C   UNL d   1       5.970   3.615 -13.216  0.00  0.00    -0.000 A 
ATOM      8  C   UNL d   1       6.595   4.468 -12.279  0.00  0.00     0.002 A 
ATOM      9  C   UNL d   1       7.984   4.643 -12.277  0.00  0.00     0.022 A 
ATOM     10  C   UNL d   1       9.008   2.338 -15.176  0.00  0.00     0.064 C 
ENDROOT
BRANCH   9  11
ATOM     11  C   UNL d   1       8.634   5.515 -11.299  0.00  0.00     0.002 A 
ATOM     12  C   UNL d   1       9.252   6.716 -11.722  0.00  0.00     0.000 A 
ATOM     13  C   UNL d   1       9.869   7.564 -10.788  0.00  0.00     0.004 A 
ATOM     14  C   UNL d   1       9.872   7.231  -9.412  0.00  0.00     0.071 A 
ATOM     15  C   UNL d   1       9.268   6.019  -8.996  0.00  0.00     0.004 A 
ATOM     16  C   UNL d   1       8.668   5.181  -9.939  0.00  0.00     0.000 A 
BRANCH  14  17
ATOM     17  C   UNL d   1      10.501   8.156  -8.392  0.00  0.00     0.419 C 
ATOM     18  F   UNL d   1      11.102   9.187  -8.979  0.00  0.00    -0.166 F 
ATOM     19  F   UNL d   1       9.566   8.624  -7.565  0.00  0.00    -0.166 F 
ATOM     20  F   UNL d   1      11.413   7.493  -7.681  0.00  0.00    -0.166 F 
ENDBRANCH  14  17
ENDBRANCH   9  11
BRANCH   1  21
ATOM     21  N   UNL d   1      10.406   4.241 -16.042  0.00  0.00     0.138 N 
BRANCH  21  22
ATOM     22  C   UNL d   1      11.767   4.793 -16.176  0.00  0.00     0.250 C 
BRANCH  22  23
ATOM     23  C   UNL d   1      11.750   6.217 -16.741  0.00  0.00     0.035 C 
ATOM     24  C   UNL d   1      13.144   6.833 -16.734  0.00  0.00     0.002 C 
ENDBRANCH  22  23
ENDBRANCH  21  22
BRANCH  21  25
ATOM     25  C   UNL d   1       9.728   4.137 -17.359  0.00  0.00     0.250 C 
BRANCH  25  26
ATOM     26  C   UNL d   1      10.461   3.181 -18.362  0.00  0.00     0.035 C 
ATOM     27  C   UNL d   1      10.387   1.648 -18.033  0.00  0.00     0.002 C 
ENDBRANCH  25  26
ENDBRANCH  21  25
ENDBRANCH   1  21
TORSDOF 7
