REMARK  4 active torsions:
REMARK  status: ('A' for Active; 'I' for Inactive)
REMARK    1  A    between atoms: C_6  and  C_7 
REMARK    2  A    between atoms: C_11  and  C_12 
REMARK    3  A    between atoms: C_12  and  N_13 
REMARK    4  A    between atoms: N_16  and  C_17 
ROOT
ATOM      1  N   UNL d   1       7.791   4.726 -12.418  0.00  0.00     0.145 N 
ATOM      2  C   UNL d   1       8.143   6.155 -12.425  0.00  0.00     0.275 C 
ATOM      3  C   UNL d   1       9.485   6.365 -11.677  0.00  0.00     0.137 C 
ATOM      4  N   UNL d   1       9.406   5.857 -10.318  0.00  0.00    -0.343 N 
ATOM      5  C   UNL d   1       8.928   4.506 -10.205  0.00  0.00     0.137 C 
ATOM      6  C   UNL d   1       7.594   4.398 -11.003  0.00  0.00     0.275 C 
ENDROOT
BRANCH   1   7
ATOM      7  C   UNL d   1       6.498   4.513 -13.050  0.00  0.00     0.277 C 
BRANCH   7   8
ATOM      8  C   UNL d   1       6.290   3.059 -13.463  0.00  0.00     0.011 A 
ATOM      9  C   UNL d   1       5.314   2.255 -12.840  0.00  0.00    -0.002 A 
ATOM     10  C   UNL d   1       5.121   0.930 -13.287  0.00  0.00    -0.000 A 
ATOM     11  C   UNL d   1       5.888   0.415 -14.348  0.00  0.00    -0.000 A 
ATOM     12  C   UNL d   1       6.869   1.202 -14.987  0.00  0.00    -0.000 A 
ATOM     13  C   UNL d   1       7.061   2.522 -14.521  0.00  0.00    -0.002 A 
BRANCH  12  14
ATOM     14  C   UNL d   1       7.668   0.657 -16.103  0.00  0.00    -0.000 A 
ATOM     15  C   UNL d   1       7.085  -0.169 -17.094  0.00  0.00    -0.000 A 
ATOM     16  C   UNL d   1       7.866  -0.713 -18.133  0.00  0.00    -0.000 A 
ATOM     17  C   UNL d   1       9.245  -0.437 -18.201  0.00  0.00    -0.004 A 
ATOM     18  C   UNL d   1       9.840   0.390 -17.228  0.00  0.00    -0.022 A 
ATOM     19  C   UNL d   1      11.320   0.714 -17.291  0.00  0.00     0.031 C 
ATOM     20  C   UNL d   1       9.052   0.928 -16.190  0.00  0.00    -0.004 A 
ENDBRANCH  12  14
ENDBRANCH   7   8
ENDBRANCH   1   7
BRANCH   4  21
ATOM     21  C   UNL d   1       9.741   6.640  -9.182  0.00  0.00     0.081 A 
ATOM     22  C   UNL d   1      10.938   7.336  -9.114  0.00  0.00     0.137 A 
ATOM     23  C   UNL d   1      11.361   8.099  -8.020  0.00  0.00     0.110 A 
ATOM     24  O   UNL d   1      11.928   7.336 -10.032  0.00  0.00    -0.266 OA
ATOM     25  C   UNL d   1      10.481   8.245  -6.937  0.00  0.00     0.021 A 
ATOM     26  N   UNL d   1      12.651   8.528  -8.214  0.00  0.00    -0.196 NA
ATOM     27  C   UNL d   1       9.235   7.581  -6.989  0.00  0.00     0.003 A 
ATOM     28  C   UNL d   1       8.882   6.768  -8.084  0.00  0.00     0.019 A 
ATOM     29  C   UNL d   1      12.927   7.991  -9.405  0.00  0.00     0.323 A 
ATOM     30  O   UNL d   1      14.105   7.979 -10.061  0.00  0.00    -0.141 OA
ENDBRANCH   4  21
TORSDOF 4
