REMARK  7 active torsions:
REMARK  status: ('A' for Active; 'I' for Inactive)
REMARK    1  A    between atoms: C_8  and  O_9 
REMARK    2  A    between atoms: O_9  and  C_10 
REMARK    3  A    between atoms: C_10  and  C_11 
REMARK    4  A    between atoms: C_11  and  C_12 
REMARK    5  A    between atoms: C_12  and  C_13 
REMARK    6  A    between atoms: C_13  and  N_14 
REMARK    7  A    between atoms: C_17  and  N_18 
ROOT
ATOM      1  N   UNL d   1       9.261   6.352  -9.441  0.00  0.00     0.137 N 
ATOM      2  C   UNL d   1      10.706   6.256  -9.303  0.00  0.00     0.252 C 
ATOM      3  C   UNL d   1      11.246   7.244  -8.283  0.00  0.00     0.058 C 
ATOM      4  C   UNL d   1      10.600   7.017  -6.904  0.00  0.00     0.094 C 
ATOM      5  C   UNL d   1       9.068   6.962  -7.067  0.00  0.00     0.058 C 
ATOM      6  C   UNL d   1       8.653   5.967  -8.171  0.00  0.00     0.252 C 
ENDROOT
BRANCH   1   7
ATOM      7  C   UNL d   1       8.855   5.431 -10.497  0.00  0.00     0.250 C 
BRANCH   7   8
ATOM      8  C   UNL d   1       7.563   5.892 -11.200  0.00  0.00     0.038 C 
BRANCH   8   9
ATOM      9  C   UNL d   1       7.033   4.914 -12.258  0.00  0.00     0.035 C 
BRANCH   9  10
ATOM     10  C   UNL d   1       8.045   4.643 -13.377  0.00  0.00     0.149 C 
BRANCH  10  11
ATOM     11  O   UNL d   1       7.720   3.457 -14.075  0.00  0.00    -0.331 OA
BRANCH  11  12
ATOM     12  C   UNL d   1       8.707   2.920 -14.872  0.00  0.00     0.096 A 
ATOM     13  C   UNL d   1       9.995   3.505 -15.063  0.00  0.00     0.024 A 
ATOM     14  C   UNL d   1      10.950   2.898 -15.891  0.00  0.00    -0.001 A 
ATOM     15  C   UNL d   1      10.633   1.717 -16.569  0.00  0.00    -0.004 A 
ATOM     16  C   UNL d   1      11.655   1.051 -17.456  0.00  0.00     0.038 C 
ATOM     17  C   UNL d   1       9.357   1.131 -16.410  0.00  0.00     0.082 A 
ATOM     18  C   UNL d   1      10.983   0.272 -18.601  0.00  0.00     0.095 C 
ATOM     19  C   UNL d   1       9.777  -0.549 -18.122  0.00  0.00     0.256 C 
ATOM     20  O   UNL d   1       9.490  -1.601 -18.669  0.00  0.00    -0.270 OA
ATOM     21  N   UNL d   1       9.041  -0.057 -17.111  0.00  0.00    -0.212 NA
ATOM     22  C   UNL d   1       8.404   1.724 -15.553  0.00  0.00     0.043 A 
ENDBRANCH  11  12
ENDBRANCH  10  11
ENDBRANCH   9  10
ENDBRANCH   8   9
ENDBRANCH   7   8
ENDBRANCH   1   7
BRANCH   4  23
ATOM     23  N   UNL d   1      11.010   8.049  -5.945  0.00  0.00    -0.281 N 
ATOM     24  C   UNL d   1      11.461   7.813  -4.644  0.00  0.00     0.082 A 
ATOM     25  C   UNL d   1      11.703   9.045  -4.069  0.00  0.00     0.102 A 
ATOM     26  C   UNL d   1      11.622   6.623  -3.926  0.00  0.00     0.019 A 
ATOM     27  N   UNL d   1      11.390   9.996  -5.006  0.00  0.00    -0.191 NA
ATOM     28  C   UNL d   1      12.116   9.194  -2.747  0.00  0.00     0.021 A 
ATOM     29  C   UNL d   1      10.993   9.390  -6.125  0.00  0.00     0.350 A 
ATOM     30  O   UNL d   1      10.684   9.974  -7.154  0.00  0.00    -0.244 OA
ATOM     31  C   UNL d   1      12.306   8.011  -2.009  0.00  0.00     0.002 A 
ATOM     32  C   UNL d   1      12.053   6.737  -2.584  0.00  0.00     0.002 A 
ENDBRANCH   4  23
TORSDOF 7
