REMARK  9 active torsions:
REMARK  status: ('A' for Active; 'I' for Inactive)
REMARK    1  A    between atoms: C_2  and  C_5 
REMARK    2  A    between atoms: C_7  and  N_8 
REMARK    3  A    between atoms: N_11  and  C_12 
REMARK    4  A    between atoms: C_12  and  C_13 
REMARK    5  A    between atoms: C_13  and  C_14 
REMARK    6  A    between atoms: C_14  and  C_15 
REMARK    7  A    between atoms: C_15  and  N_16 
REMARK       I    between atoms: N_16  and  C_17 
REMARK    8  A    between atoms: C_17  and  C_19 
REMARK    9  A    between atoms: C_32  and  C_33 
ROOT
ATOM      1  N   UNL d   1      12.907   5.039 -16.962  0.00  0.00    -0.330 N 
ATOM      2  C   UNL d   1      12.814   5.217 -15.543  0.00  0.00     0.138 C 
ATOM      3  C   UNL d   1      11.391   5.582 -15.108  0.00  0.00     0.274 C 
ATOM      4  N   UNL d   1      10.446   4.592 -15.577  0.00  0.00     0.141 N 
ATOM      5  C   UNL d   1      10.453   4.636 -17.039  0.00  0.00     0.274 C 
ATOM      6  C   UNL d   1      11.865   4.254 -17.569  0.00  0.00     0.138 C 
ENDROOT
BRANCH   4   7
ATOM      7  C   UNL d   1       9.075   4.796 -15.077  0.00  0.00     0.251 C 
BRANCH   7   8
ATOM      8  C   UNL d   1       8.889   4.744 -13.560  0.00  0.00     0.037 C 
BRANCH   8   9
ATOM      9  C   UNL d   1       7.439   5.024 -13.135  0.00  0.00     0.029 C 
BRANCH   9  10
ATOM     10  C   UNL d   1       7.184   4.698 -11.657  0.00  0.00     0.129 C 
BRANCH  10  11
ATOM     11  N   UNL d   1       7.915   5.601 -10.771  0.00  0.00    -0.233 NA
ATOM     12  C   UNL d   1       9.107   5.307 -10.251  0.00  0.00     0.294 C 
ATOM     13  O   UNL d   1       9.737   4.318 -10.561  0.00  0.00    -0.264 OA
BRANCH  12  14
ATOM     14  C   UNL d   1       9.613   6.190  -9.187  0.00  0.00     0.160 C 
ATOM     15  N   UNL d   1       9.317   7.533  -9.082  0.00  0.00    -0.220 NA
ATOM     16  C   UNL d   1       9.879   7.923  -7.952  0.00  0.00     0.164 A 
ATOM     17  N   UNL d   1      10.662   6.923  -7.367  0.00  0.00    -0.208 N 
ATOM     18  C   UNL d   1       9.834   9.145  -7.298  0.00  0.00     0.041 A 
ATOM     19  C   UNL d   1      10.506   5.839  -8.195  0.00  0.00     0.126 C 
ATOM     20  N   UNL d   1      11.394   7.020  -6.235  0.00  0.00    -0.152 NA
ATOM     21  C   UNL d   1      11.348   8.241  -5.674  0.00  0.00     0.159 A 
ATOM     22 CL   UNL d   1      12.223   8.555  -4.195  0.00  0.00    -0.060 Cl
ATOM     23  C   UNL d   1      10.601   9.332  -6.173  0.00  0.00     0.036 A 
ENDBRANCH  12  14
ENDBRANCH  10  11
ENDBRANCH   9  10
ENDBRANCH   8   9
ENDBRANCH   7   8
ENDBRANCH   4   7
BRANCH   1  24
ATOM     24  C   UNL d   1      13.799   5.837 -17.689  0.00  0.00     0.143 A 
ATOM     25  N   UNL d   1      13.313   6.534 -18.727  0.00  0.00    -0.214 NA
ATOM     26  C   UNL d   1      14.173   7.297 -19.418  0.00  0.00     0.140 A 
ATOM     27  N   UNL d   1      15.499   7.360 -19.193  0.00  0.00    -0.227 NA
ATOM     28  C   UNL d   1      15.993   6.681 -18.134  0.00  0.00     0.157 A 
ATOM     29  C   UNL d   1      15.149   5.889 -17.316  0.00  0.00     0.060 A 
BRANCH  26  30
ATOM     30  C   UNL d   1      13.620   8.211 -20.525  0.00  0.00     0.052 C 
ATOM     31  C   UNL d   1      12.076   8.209 -20.527  0.00  0.00     0.008 C 
ATOM     32  C   UNL d   1      14.084   7.710 -21.911  0.00  0.00     0.008 C 
ATOM     33  C   UNL d   1      14.104   9.653 -20.307  0.00  0.00     0.008 C 
ENDBRANCH  26  30
BRANCH  28  34
ATOM     34  C   UNL d   1      17.504   6.784 -17.910  0.00  0.00     0.435 C 
ATOM     35  F   UNL d   1      17.822   6.367 -16.687  0.00  0.00    -0.165 F 
ATOM     36  F   UNL d   1      18.145   6.021 -18.798  0.00  0.00    -0.165 F 
ATOM     37  F   UNL d   1      17.921   8.039 -18.052  0.00  0.00    -0.165 F 
ENDBRANCH  28  34
ENDBRANCH   1  24
TORSDOF 9
