REMARK  7 active torsions:
REMARK  status: ('A' for Active; 'I' for Inactive)
REMARK    1  A    between atoms: C_2  and  C_3 
REMARK       I    between atoms: C_2  and  N_9 
REMARK    2  A    between atoms: C_3  and  C_4 
REMARK    3  A    between atoms: N_9  and  C_10 
REMARK    4  A    between atoms: C_13  and  C_14 
REMARK    5  A    between atoms: C_14  and  C_15 
REMARK    6  A    between atoms: C_15  and  N_16 
REMARK    7  A    between atoms: C_19  and  C_20 
ROOT
ATOM      1  C   UNL d   1       9.190   5.718 -11.796  0.00  0.00     0.035 C 
ENDROOT
BRANCH   1   2
ATOM      2  C   UNL d   1       9.029   4.583 -12.817  0.00  0.00     0.002 C 
ATOM      3  C   UNL d   1       9.110   5.163 -14.225  0.00  0.00     0.002 C 
ATOM      4  C   UNL d   1       9.043   4.082 -15.298  0.00  0.00     0.024 C 
ATOM      5  C   UNL d   1      10.134   3.025 -15.139  0.00  0.00     0.106 C 
ATOM      6  C   UNL d   1      10.105   2.444 -13.725  0.00  0.00     0.024 C 
ATOM      7  C   UNL d   1      10.164   3.554 -12.678  0.00  0.00     0.002 C 
BRANCH   5   8
ATOM      8  N   UNL d   1       9.995   1.985 -16.137  0.00  0.00    -0.240 NA
ATOM      9  C   UNL d   1       8.934   1.183 -16.313  0.00  0.00     0.254 C 
ATOM     10  O   UNL d   1       7.923   1.213 -15.604  0.00  0.00    -0.271 OA
BRANCH   9  11
ATOM     11  C   UNL d   1       9.045   0.169 -17.437  0.00  0.00     0.120 C 
BRANCH  11  12
ATOM     12  C   UNL d   1       7.748  -0.045 -18.229  0.00  0.00     0.136 C 
ATOM     13  C   UNL d   1       6.468  -0.475 -17.481  0.00  0.00     0.031 C 
ATOM     14  C   UNL d   1       6.187  -1.497 -18.572  0.00  0.00     0.005 C 
ATOM     15  C   UNL d   1       7.650  -1.373 -18.998  0.00  0.00     0.031 C 
ATOM     16  O   UNL d   1       7.580   1.098 -19.047  0.00  0.00    -0.226 OA
ENDBRANCH  11  12
ENDBRANCH   9  11
ENDBRANCH   5   8
ENDBRANCH   1   2
BRANCH   1  17
ATOM     17  C   UNL d   1       8.736   5.316 -10.386  0.00  0.00     0.250 C 
BRANCH  17  18
ATOM     18  N   UNL d   1       9.182   6.226  -9.341  0.00  0.00     0.137 N 
ATOM     19  C   UNL d   1       8.660   5.730  -8.066  0.00  0.00     0.251 C 
ATOM     20  C   UNL d   1       9.018   6.706  -6.925  0.00  0.00     0.040 C 
ATOM     21  C   UNL d   1      10.536   6.923  -6.827  0.00  0.00     0.028 C 
ATOM     22  C   UNL d   1      11.084   7.301  -8.203  0.00  0.00     0.040 C 
ATOM     23  C   UNL d   1      10.638   6.306  -9.255  0.00  0.00     0.251 C 
BRANCH  21  24
ATOM     24  C   UNL d   1      10.900   7.959  -5.782  0.00  0.00     0.002 A 
ATOM     25  C   UNL d   1      11.490   7.603  -4.554  0.00  0.00     0.115 A 
ATOM     26  C   UNL d   1      11.811   8.545  -3.593  0.00  0.00     0.119 A 
ATOM     27  O   UNL d   1      11.822   6.381  -4.096  0.00  0.00    -0.300 OA
ATOM     28  C   UNL d   1      11.531   9.902  -3.786  0.00  0.00     0.026 A 
ATOM     29  O   UNL d   1      12.334   7.927  -2.503  0.00  0.00    -0.300 OA
ATOM     30  C   UNL d   1      10.979  10.290  -5.022  0.00  0.00     0.002 A 
ATOM     31  C   UNL d   1      10.659   9.330  -6.008  0.00  0.00    -0.002 A 
ATOM     32  C   UNL d   1      12.334   6.558  -2.807  0.00  0.00     0.304 A 
ENDBRANCH  21  24
ENDBRANCH  17  18
ENDBRANCH   1  17
TORSDOF 7
