REMARK  4 active torsions:
REMARK  status: ('A' for Active; 'I' for Inactive)
REMARK    1  A    between atoms: C_6  and  N_7 
REMARK       I    between atoms: N_7  and  C_8 
REMARK    2  A    between atoms: C_8  and  C_10 
REMARK    3  A    between atoms: C_10  and  N_11 
REMARK    4  A    between atoms: N_14  and  C_15 
ROOT
ATOM      1  N   UNL d   1       9.501   6.145 -11.510  0.00  0.00     0.151 N 
ATOM      2  C   UNL d   1       8.552   6.313 -12.624  0.00  0.00     0.275 C 
ATOM      3  C   UNL d   1       8.955   5.405 -13.803  0.00  0.00     0.137 C 
ATOM      4  N   UNL d   1       9.037   4.040 -13.348  0.00  0.00    -0.344 N 
ATOM      5  C   UNL d   1       9.869   3.814 -12.186  0.00  0.00     0.137 C 
ATOM      6  C   UNL d   1       9.456   4.753 -11.040  0.00  0.00     0.275 C 
ENDROOT
BRANCH   1   7
ATOM      7  C   UNL d   1       9.160   7.068 -10.413  0.00  0.00     0.339 C 
BRANCH   7   8
ATOM      8  C   UNL d   1      10.236   7.326  -9.347  0.00  0.00     0.290 C 
ATOM      9  N   UNL d   1       9.834   7.266  -8.067  0.00  0.00    -0.210 NA
ATOM     10  O   UNL d   1      11.392   7.601  -9.667  0.00  0.00    -0.268 OA
BRANCH   9  11
ATOM     11  C   UNL d   1      10.573   7.796  -6.979  0.00  0.00     0.084 A 
ATOM     12  C   UNL d   1      11.049   9.126  -7.015  0.00  0.00     0.019 A 
ATOM     13  C   UNL d   1      11.717   9.670  -5.906  0.00  0.00     0.001 A 
ATOM     14  C   UNL d   1      11.921   8.891  -4.751  0.00  0.00    -0.004 A 
ATOM     15  C   UNL d   1      11.460   7.556  -4.711  0.00  0.00    -0.020 A 
ATOM     16  C   UNL d   1      11.685   6.712  -3.471  0.00  0.00     0.031 C 
ATOM     17  C   UNL d   1      10.770   7.018  -5.820  0.00  0.00     0.015 A 
ENDBRANCH   9  11
ENDBRANCH   7   8
ENDBRANCH   1   7
BRANCH   4  18
ATOM     18  C   UNL d   1       8.381   3.011 -14.034  0.00  0.00     0.056 A 
ATOM     19  C   UNL d   1       9.061   2.130 -14.914  0.00  0.00     0.015 A 
ATOM     20  C   UNL d   1       8.335   1.085 -15.549  0.00  0.00     0.001 A 
ATOM     21  C   UNL d   1      10.441   2.272 -15.187  0.00  0.00     0.001 A 
ATOM     22  C   UNL d   1       6.966   0.913 -15.280  0.00  0.00     0.000 A 
ATOM     23  C   UNL d   1       8.983   0.219 -16.447  0.00  0.00     0.000 A 
ATOM     24  C   UNL d   1       6.309   1.770 -14.386  0.00  0.00     0.002 A 
ATOM     25  C   UNL d   1       7.004   2.839 -13.791  0.00  0.00     0.017 A 
ATOM     26  C   UNL d   1      10.353   0.377 -16.724  0.00  0.00     0.000 A 
ATOM     27  C   UNL d   1      11.078   1.403 -16.090  0.00  0.00     0.000 A 
ENDBRANCH   4  18
TORSDOF 4
