REMARK  4 active torsions:
REMARK  status: ('A' for Active; 'I' for Inactive)
REMARK    1  A    between atoms: C_11  and  C_12 
REMARK    2  A    between atoms: C_12  and  C_13 
REMARK    3  A    between atoms: C_13  and  N_14 
REMARK    4  A    between atoms: N_17  and  C_18 
ROOT
ATOM      1  N   UNL d   1       9.197   6.034 -10.712  0.00  0.00     0.141 N 
ATOM      2  C   UNL d   1       8.756   5.651  -9.363  0.00  0.00     0.274 C 
ATOM      3  C   UNL d   1       9.963   5.587  -8.418  0.00  0.00     0.137 C 
ATOM      4  N   UNL d   1      10.658   6.872  -8.392  0.00  0.00    -0.344 N 
ATOM      5  C   UNL d   1      11.011   7.407  -9.704  0.00  0.00     0.137 C 
ATOM      6  C   UNL d   1       9.787   7.381 -10.635  0.00  0.00     0.274 C 
ENDROOT
BRANCH   1   7
ATOM      7  C   UNL d   1       8.064   6.065 -11.638  0.00  0.00     0.251 C 
BRANCH   7   8
ATOM      8  C   UNL d   1       7.450   4.662 -11.830  0.00  0.00     0.043 C 
BRANCH   8   9
ATOM      9  C   UNL d   1       7.084   4.340 -13.280  0.00  0.00     0.068 A 
ATOM     10  C   UNL d   1       6.145   3.128 -13.395  0.00  0.00     0.173 A 
ATOM     11  O   UNL d   1       5.065   3.035 -12.820  0.00  0.00    -0.291 OA
ATOM     12  C   UNL d   1       6.762   2.147 -14.291  0.00  0.00     0.031 A 
ATOM     13  C   UNL d   1       7.996   2.616 -14.723  0.00  0.00    -0.017 A 
ATOM     14  C   UNL d   1       6.265   0.897 -14.704  0.00  0.00     0.005 A 
ATOM     15  C   UNL d   1       8.794   1.855 -15.600  0.00  0.00     0.025 A 
ATOM     16  C   UNL d   1       8.325   3.972 -14.142  0.00  0.00     0.034 A 
ATOM     17  C   UNL d   1       8.311   0.599 -16.031  0.00  0.00     0.140 A 
ATOM     18  C   UNL d   1       7.053   0.127 -15.589  0.00  0.00     0.030 A 
ATOM     19  F   UNL d   1       9.057  -0.151 -16.872  0.00  0.00    -0.204 F 
ENDBRANCH   8   9
ENDBRANCH   7   8
ENDBRANCH   1   7
BRANCH   4  20
ATOM     20  C   UNL d   1      10.933   7.537  -7.191  0.00  0.00     0.056 A 
ATOM     21  C   UNL d   1      11.191   6.789  -6.018  0.00  0.00     0.018 A 
ATOM     22  C   UNL d   1      11.460   7.432  -4.797  0.00  0.00     0.013 A 
ATOM     23  C   UNL d   1      11.497   8.830  -4.734  0.00  0.00     0.058 A 
ATOM     24  C   UNL d   1      11.241   9.597  -5.888  0.00  0.00     0.013 A 
ATOM     25 CL   UNL d   1      11.873   9.579  -3.236  0.00  0.00    -0.082 Cl
ATOM     26  C   UNL d   1      10.962   8.951  -7.113  0.00  0.00     0.018 A 
ENDBRANCH   4  20
TORSDOF 4
