REMARK  8 active torsions:
REMARK  status: ('A' for Active; 'I' for Inactive)
REMARK    1  A    between atoms: O_2  and  C_3 
REMARK    2  A    between atoms: C_3  and  C_4 
REMARK    3  A    between atoms: C_4  and  C_5 
REMARK       I    between atoms: C_5  and  N_7 
REMARK    4  A    between atoms: N_7  and  C_8 
REMARK    5  A    between atoms: C_11  and  C_12 
REMARK    6  A    between atoms: C_12  and  C_13 
REMARK    7  A    between atoms: C_13  and  N_14 
REMARK    8  A    between atoms: N_17  and  C_18 
ROOT
ATOM      1  N   UNL d   1       7.738   6.188 -12.386  0.00  0.00     0.141 N 
ATOM      2  C   UNL d   1       8.745   5.945 -13.418  0.00  0.00     0.274 C 
ATOM      3  C   UNL d   1       9.393   4.541 -13.356  0.00  0.00     0.138 C 
ATOM      4  N   UNL d   1       8.282   3.582 -13.385  0.00  0.00    -0.330 N 
ATOM      5  C   UNL d   1       7.219   3.791 -12.396  0.00  0.00     0.138 C 
ATOM      6  C   UNL d   1       6.665   5.210 -12.551  0.00  0.00     0.274 C 
ENDROOT
BRANCH   1   7
ATOM      7  C   UNL d   1       8.293   6.112 -11.021  0.00  0.00     0.250 C 
BRANCH   7   8
ATOM      8  C   UNL d   1       9.341   7.207 -10.757  0.00  0.00     0.035 C 
BRANCH   8   9
ATOM      9  C   UNL d   1      10.029   7.062  -9.394  0.00  0.00     0.002 C 
ATOM     10  C   UNL d   1      11.129   8.129  -9.311  0.00  0.00     0.002 C 
ATOM     11  C   UNL d   1      11.804   8.127  -7.947  0.00  0.00     0.024 C 
ATOM     12  C   UNL d   1      10.770   8.297  -6.821  0.00  0.00     0.106 C 
ATOM     13  C   UNL d   1       9.704   7.201  -6.881  0.00  0.00     0.024 C 
ATOM     14  C   UNL d   1       9.033   7.211  -8.239  0.00  0.00     0.002 C 
BRANCH  12  15
ATOM     15  N   UNL d   1      11.454   8.233  -5.534  0.00  0.00    -0.240 NA
ATOM     16  C   UNL d   1      11.633   9.275  -4.714  0.00  0.00     0.254 C 
ATOM     17  O   UNL d   1      11.035  10.349  -4.830  0.00  0.00    -0.271 OA
BRANCH  16  18
ATOM     18  C   UNL d   1      12.694   9.098  -3.627  0.00  0.00     0.122 C 
BRANCH  18  19
ATOM     19  C   UNL d   1      12.061   8.757  -2.267  0.00  0.00     0.152 C 
BRANCH  19  20
ATOM     20  O   UNL d   1      12.625   7.614  -1.668  0.00  0.00    -0.351 OA
ATOM     21  C   UNL d   1      12.313   6.382  -2.290  0.00  0.00     0.174 C 
ENDBRANCH  19  20
ENDBRANCH  18  19
ENDBRANCH  16  18
ENDBRANCH  12  15
ENDBRANCH   8   9
ENDBRANCH   7   8
ENDBRANCH   1   7
BRANCH   4  22
ATOM     22  C   UNL d   1       8.309   2.463 -14.264  0.00  0.00     0.142 A 
ATOM     23  C   UNL d   1       7.202   1.548 -14.459  0.00  0.00     0.059 A 
ATOM     24  C   UNL d   1       7.420   0.511 -15.399  0.00  0.00     0.104 A 
ATOM     25  C   UNL d   1       5.849   1.322 -13.986  0.00  0.00     0.032 A 
ATOM     26  C   UNL d   1       8.609   0.352 -16.109  0.00  0.00     0.040 A 
ATOM     27  O   UNL d   1       6.289  -0.284 -15.508  0.00  0.00    -0.305 OA
ATOM     28  C   UNL d   1       9.638   1.267 -15.826  0.00  0.00     0.063 A 
ATOM     29  N   UNL d   1       9.474   2.267 -14.944  0.00  0.00    -0.233 NA
ATOM     30  C   UNL d   1      10.981   1.152 -16.535  0.00  0.00     0.052 C 
ATOM     31  C   UNL d   1       5.372   0.221 -14.636  0.00  0.00     0.123 A 
ENDBRANCH   4  22
TORSDOF 8
