REMARK  0 active torsions:
REMARK  status: ('A' for Active; 'I' for Inactive)
ROOT
ATOM      1  C   UNL d   1       8.680   5.893 -11.220  0.00  0.00     0.058 C 
ATOM      2  C   UNL d   1       9.454   6.715 -10.236  0.00  0.00     0.074 A 
ATOM      3  O   UNL d   1      10.131   7.748 -10.779  0.00  0.00    -0.316 OA
ATOM      4  C   UNL d   1      10.749   8.337  -9.732  0.00  0.00     0.079 A 
ATOM      5  C   UNL d   1      11.691   9.389 -10.095  0.00  0.00     0.058 C 
ATOM      6  C   UNL d   1      10.423   7.785  -8.547  0.00  0.00     0.035 A 
ATOM      7  C   UNL d   1       9.558   6.694  -8.867  0.00  0.00    -0.000 A 
ATOM      8  C   UNL d   1       8.890   5.740  -7.946  0.00  0.00     0.029 C 
ATOM      9  C   UNL d   1       8.586   6.389  -6.591  0.00  0.00     0.009 C 
ATOM     10  C   UNL d   1       9.826   6.557  -5.657  0.00  0.00     0.030 C 
ATOM     11  C   UNL d   1      10.641   7.742  -5.995  0.00  0.00     0.018 A 
ATOM     12  C   UNL d   1      11.386   8.564  -5.111  0.00  0.00     0.119 A 
ATOM     13  N   UNL d   1      12.073   9.491  -5.761  0.00  0.00    -0.147 NA
ATOM     14  N   UNL d   1      11.779   9.250  -7.047  0.00  0.00    -0.148 NA
ATOM     15  C   UNL d   1      10.907   8.231  -7.242  0.00  0.00     0.102 A 
ENDROOT
TORSDOF 0
