REMARK  10 active torsions:
REMARK  status: ('A' for Active; 'I' for Inactive)
REMARK    1  A    between atoms: C_2  and  C_3 
REMARK    2  A    between atoms: C_3  and  N_4 
REMARK    3  A    between atoms: N_4  and  C_5 
REMARK    4  A    between atoms: N_4  and  C_24 
REMARK    5  A    between atoms: C_5  and  C_6 
REMARK    6  A    between atoms: C_6  and  C_7 
REMARK    7  A    between atoms: C_7  and  C_8 
REMARK    8  A    between atoms: C_8  and  N_9 
REMARK       I    between atoms: N_9  and  C_10 
REMARK    9  A    between atoms: C_10  and  C_12 
REMARK   10  A    between atoms: C_15  and  C_16 
ROOT
ATOM      1  C   UNL d   1       9.397   7.074 -11.815  0.00  0.00     0.029 C 
ENDROOT
BRANCH   1   2
ATOM      2  C   UNL d   1       9.923   8.070 -10.791  0.00  0.00     0.037 C 
BRANCH   2   3
ATOM      3  C   UNL d   1      10.578   7.310  -9.618  0.00  0.00     0.250 C 
BRANCH   3   4
ATOM      4  N   UNL d   1      11.287   8.234  -8.741  0.00  0.00     0.135 N 
BRANCH   4   5
ATOM      5  C   UNL d   1      12.501   8.760  -9.388  0.00  0.00     0.250 C 
BRANCH   5   6
ATOM      6  C   UNL d   1      13.602   7.745  -9.753  0.00  0.00     0.035 C 
ATOM      7  C   UNL d   1      14.859   8.340 -10.417  0.00  0.00     0.002 C 
ENDBRANCH   5   6
ENDBRANCH   4   5
BRANCH   4   8
ATOM      8  C   UNL d   1      11.510   7.756  -7.365  0.00  0.00     0.224 C 
ATOM      9  C   UNL d   1      12.043   8.900  -6.439  0.00  0.00     0.059 C 
ATOM     10  C   UNL d   1      12.072   8.526  -4.968  0.00  0.00    -0.024 A 
ATOM     11  C   UNL d   1      11.413   7.383  -4.472  0.00  0.00    -0.026 A 
ATOM     12  C   UNL d   1      12.884   9.238  -4.088  0.00  0.00    -0.004 A 
ATOM     13  C   UNL d   1      10.545   6.571  -5.364  0.00  0.00     0.028 C 
ATOM     14  C   UNL d   1      11.520   6.995  -3.119  0.00  0.00    -0.005 A 
ATOM     15  C   UNL d   1      10.231   7.193  -6.710  0.00  0.00     0.038 C 
ATOM     16  C   UNL d   1      12.253   7.771  -2.242  0.00  0.00    -0.000 A 
ATOM     17  C   UNL d   1      12.942   8.881  -2.728  0.00  0.00    -0.000 A 
ENDBRANCH   4   8
ENDBRANCH   3   4
ENDBRANCH   2   3
ENDBRANCH   1   2
BRANCH   1  18
ATOM     18  C   UNL d   1       8.399   6.040 -11.260  0.00  0.00     0.129 C 
BRANCH  18  19
ATOM     19  N   UNL d   1       7.907   5.138 -12.264  0.00  0.00    -0.234 NA
ATOM     20  C   UNL d   1       8.626   4.394 -13.104  0.00  0.00     0.275 C 
ATOM     21  O   UNL d   1       9.850   4.489 -13.255  0.00  0.00    -0.266 OA
BRANCH  20  22
ATOM     22  C   UNL d   1       7.846   3.366 -13.854  0.00  0.00     0.058 A 
ATOM     23  C   UNL d   1       8.477   2.681 -14.896  0.00  0.00     0.005 A 
ATOM     24  C   UNL d   1       7.847   1.607 -15.535  0.00  0.00     0.000 A 
ATOM     25  C   UNL d   1       6.559   1.177 -15.122  0.00  0.00     0.000 A 
ATOM     26  C   UNL d   1       5.949   1.853 -14.039  0.00  0.00     0.000 A 
ATOM     27  C   UNL d   1       6.552   2.969 -13.434  0.00  0.00     0.005 A 
BRANCH  25  28
ATOM     28  C   UNL d   1       5.869   0.078 -15.837  0.00  0.00     0.000 A 
ATOM     29  C   UNL d   1       4.752  -0.570 -15.257  0.00  0.00     0.000 A 
ATOM     30  C   UNL d   1       4.081  -1.596 -15.938  0.00  0.00     0.000 A 
ATOM     31  C   UNL d   1       4.519  -2.016 -17.203  0.00  0.00     0.000 A 
ATOM     32  C   UNL d   1       5.619  -1.383 -17.802  0.00  0.00     0.000 A 
ATOM     33  C   UNL d   1       6.275  -0.334 -17.131  0.00  0.00     0.000 A 
ENDBRANCH  25  28
ENDBRANCH  20  22
ENDBRANCH  18  19
ENDBRANCH   1  18
TORSDOF 10
