REMARK  5 active torsions:
REMARK  status: ('A' for Active; 'I' for Inactive)
REMARK    1  A    between atoms: C_2  and  C_3 
REMARK    2  A    between atoms: C_3  and  N_4 
REMARK    3  A    between atoms: N_4  and  C_5 
REMARK    4  A    between atoms: C_9  and  C_10 
REMARK    5  A    between atoms: C_10  and  O_12 
ROOT
ATOM      1  C   UNL d   1      11.164   8.645  -8.259  0.00  0.00     0.261 C 
ATOM      2  C   UNL d   1      10.458   9.311  -9.425  0.00  0.00     0.041 C 
ATOM      3  C   UNL d   1      10.153   8.306 -10.508  0.00  0.00     0.028 C 
ATOM      4  C   UNL d   1       9.610   6.945 -10.060  0.00  0.00    -0.021 A 
ATOM      5  C   UNL d   1       8.962   6.015 -10.934  0.00  0.00     0.059 A 
ATOM      6  C   UNL d   1       8.480   4.772 -10.434  0.00  0.00     0.005 A 
ATOM      7  C   UNL d   1       8.636   4.463  -9.082  0.00  0.00    -0.000 A 
ATOM      8  C   UNL d   1       9.241   5.395  -8.246  0.00  0.00    -0.004 A 
ATOM      9  C   UNL d   1       9.732   6.586  -8.716  0.00  0.00    -0.024 A 
ATOM     10  C   UNL d   1      10.254   7.541  -7.683  0.00  0.00     0.056 C 
ATOM     11  C   UNL d   1       9.048   8.101  -6.904  0.00  0.00     0.007 C 
ENDROOT
BRANCH   1  12
ATOM     12  N   UNL d   1      11.465   9.656  -7.262  0.00  0.00     0.337 N 
BRANCH  12  13
ATOM     13  C   UNL d   1      12.277   9.157  -6.176  0.00  0.00     0.290 C 
BRANCH  13  14
ATOM     14  C   UNL d   1      12.021   9.999  -4.938  0.00  0.00     0.038 C 
ATOM     15  C   UNL d   1      10.832   9.620  -4.073  0.00  0.00     0.002 C 
ENDBRANCH  13  14
ENDBRANCH  12  13
ENDBRANCH   1  12
BRANCH   5  16
ATOM     16  C   UNL d   1       8.823   6.255 -12.354  0.00  0.00     0.295 C 
ATOM     17  O   UNL d   1       9.339   7.234 -12.845  0.00  0.00    -0.259 OA
BRANCH  16  18
ATOM     18  O   UNL d   1       8.217   5.279 -13.043  0.00  0.00    -0.296 OA
ATOM     19  C   UNL d   1       8.454   5.172 -14.427  0.00  0.00     0.185 C 
ENDBRANCH  16  18
ENDBRANCH   5  16
TORSDOF 5
