REMARK  6 active torsions:
REMARK  status: ('A' for Active; 'I' for Inactive)
REMARK    1  A    between atoms: N_5  and  C_6 
REMARK    2  A    between atoms: C_6  and  C_7 
REMARK    3  A    between atoms: C_7  and  C_8 
REMARK    4  A    between atoms: C_8  and  C_9 
REMARK    5  A    between atoms: C_9  and  N_10 
REMARK       I    between atoms: N_10  and  C_11 
REMARK    6  A    between atoms: C_11  and  C_13 
ROOT
ATOM      1  N   UNL d   1      10.649   7.764  -8.749  0.00  0.00    -0.233 NA
ATOM      2  C   UNL d   1      10.023   8.463  -7.797  0.00  0.00     0.294 C 
ATOM      3  O   UNL d   1       9.062   9.190  -8.004  0.00  0.00    -0.264 OA
ENDROOT
BRANCH   1   4
ATOM      4  C   UNL d   1      10.291   7.791 -10.162  0.00  0.00     0.129 C 
BRANCH   4   5
ATOM      5  C   UNL d   1       9.606   6.477 -10.572  0.00  0.00     0.029 C 
BRANCH   5   6
ATOM      6  C   UNL d   1       9.328   6.410 -12.083  0.00  0.00     0.037 C 
BRANCH   6   7
ATOM      7  C   UNL d   1       8.933   5.003 -12.575  0.00  0.00     0.251 C 
BRANCH   7   8
ATOM      8  N   UNL d   1       9.955   4.316 -13.372  0.00  0.00     0.141 N 
ATOM      9  C   UNL d   1      10.173   4.946 -14.676  0.00  0.00     0.285 C 
ATOM     10  C   UNL d   1      11.221   4.198 -15.517  0.00  0.00     0.285 C 
ATOM     11  N   UNL d   1      10.841   2.811 -15.746  0.00  0.00     0.143 N 
ATOM     12  C   UNL d   1      11.832   2.115 -16.545  0.00  0.00     0.285 C 
ATOM     13  C   UNL d   1      10.629   2.168 -14.453  0.00  0.00     0.285 C 
ATOM     14  C   UNL d   1       9.576   2.925 -13.616  0.00  0.00     0.285 C 
ENDBRANCH   7   8
ENDBRANCH   6   7
ENDBRANCH   5   6
ENDBRANCH   4   5
ENDBRANCH   1   4
BRANCH   2  15
ATOM     15  C   UNL d   1      10.645   8.340  -6.458  0.00  0.00     0.158 A 
ATOM     16  N   UNL d   1      10.906   9.417  -5.616  0.00  0.00    -0.222 NA
ATOM     17  C   UNL d   1      11.418   8.895  -4.503  0.00  0.00     0.148 A 
ATOM     18  N   UNL d   1      11.470   7.483  -4.612  0.00  0.00    -0.288 N 
ATOM     19  C   UNL d   1      11.861   9.472  -3.284  0.00  0.00     0.037 A 
ATOM     20  C   UNL d   1      10.986   7.155  -5.862  0.00  0.00     0.106 A 
ATOM     21  C   UNL d   1      11.919   6.693  -3.605  0.00  0.00     0.082 A 
ATOM     22  C   UNL d   1      12.352   7.261  -2.437  0.00  0.00     0.019 A 
ATOM     23  C   UNL d   1      12.335   8.664  -2.276  0.00  0.00     0.005 A 
ENDBRANCH   2  15
TORSDOF 6
