REMARK  6 active torsions:
REMARK  status: ('A' for Active; 'I' for Inactive)
REMARK    1  A    between atoms: C_6  and  N_7 
REMARK    2  A    between atoms: N_10  and  C_11 
REMARK    3  A    between atoms: C_11  and  C_12 
REMARK    4  A    between atoms: C_12  and  C_13 
REMARK    5  A    between atoms: C_16  and  N_17 
REMARK       I    between atoms: N_17  and  C_18 
REMARK    6  A    between atoms: C_18  and  C_20 
ROOT
ATOM      1  N   UNL d   1       6.668   2.052 -14.739  0.00  0.00    -0.329 N 
ATOM      2  C   UNL d   1       6.118   3.253 -14.129  0.00  0.00     0.138 C 
ATOM      3  C   UNL d   1       7.001   3.821 -13.035  0.00  0.00     0.274 C 
ATOM      4  N   UNL d   1       8.406   3.941 -13.494  0.00  0.00     0.141 N 
ATOM      5  C   UNL d   1       8.926   2.673 -14.062  0.00  0.00     0.274 C 
ATOM      6  C   UNL d   1       8.032   2.190 -15.223  0.00  0.00     0.138 C 
ENDROOT
BRANCH   4   7
ATOM      7  C   UNL d   1       9.267   4.316 -12.377  0.00  0.00     0.250 C 
BRANCH   7   8
ATOM      8  C   UNL d   1       8.920   5.713 -11.799  0.00  0.00     0.035 C 
BRANCH   8   9
ATOM      9  C   UNL d   1       9.450   5.935 -10.376  0.00  0.00     0.002 C 
ATOM     10  C   UNL d   1       8.401   5.616  -9.294  0.00  0.00     0.002 C 
ATOM     11  C   UNL d   1       8.897   5.998  -7.885  0.00  0.00     0.024 C 
ATOM     12  C   UNL d   1       9.400   7.459  -7.791  0.00  0.00     0.107 C 
ATOM     13  C   UNL d   1      10.446   7.719  -8.900  0.00  0.00     0.024 C 
ATOM     14  C   UNL d   1       9.891   7.394 -10.275  0.00  0.00     0.002 C 
BRANCH  12  15
ATOM     15  N   UNL d   1       9.979   7.693  -6.470  0.00  0.00    -0.235 NA
ATOM     16  C   UNL d   1      10.601   8.813  -6.057  0.00  0.00     0.298 C 
ATOM     17  O   UNL d   1      10.665   9.863  -6.688  0.00  0.00    -0.263 OA
BRANCH  16  18
ATOM     18  C   UNL d   1      11.227   8.747  -4.741  0.00  0.00     0.157 A 
ATOM     19  O   UNL d   1      11.258   9.889  -4.003  0.00  0.00    -0.300 OA
ATOM     20  C   UNL d   1      11.865   9.570  -2.836  0.00  0.00     0.123 A 
ATOM     21  C   UNL d   1      12.269   8.265  -2.838  0.00  0.00     0.029 A 
ATOM     22  C   UNL d   1      11.859   7.727  -4.092  0.00  0.00     0.032 A 
ENDBRANCH  16  18
ENDBRANCH  12  15
ENDBRANCH   8   9
ENDBRANCH   7   8
ENDBRANCH   4   7
BRANCH   1  23
ATOM     23  C   UNL d   1       5.896   0.887 -14.905  0.00  0.00     0.148 A 
ATOM     24  C   UNL d   1       5.764   0.226 -16.195  0.00  0.00     0.042 A 
ATOM     25  C   UNL d   1       6.296   0.458 -17.491  0.00  0.00     0.005 A 
ATOM     26  C   UNL d   1       4.825  -0.841 -16.076  0.00  0.00     0.051 A 
ATOM     27  C   UNL d   1       5.965  -0.365 -18.585  0.00  0.00     0.014 A 
ATOM     28  C   UNL d   1       5.086  -1.447 -18.412  0.00  0.00     0.071 A 
ATOM     29  N   UNL d   1       4.804  -2.304 -19.482  0.00  0.00    -0.101 NA
ATOM     30  C   UNL d   1       4.499  -1.675 -17.159  0.00  0.00     0.022 A 
ATOM     31  S   UNL d   1       4.178  -0.818 -14.450  0.00  0.00     0.015 SA
ATOM     32  N   UNL d   1       5.177   0.419 -13.905  0.00  0.00    -0.192 NA
ENDBRANCH   1  23
TORSDOF 6
