REMARK  7 active torsions:
REMARK  status: ('A' for Active; 'I' for Inactive)
REMARK    1  A    between atoms: C_3  and  N_4 
REMARK    2  A    between atoms: N_4  and  C_5 
REMARK    3  A    between atoms: C_11  and  O_12 
REMARK    4  A    between atoms: O_12  and  C_13 
REMARK    5  A    between atoms: C_13  and  C_14 
REMARK    6  A    between atoms: C_14  and  C_15 
REMARK    7  A    between atoms: C_15  and  N_16 
ROOT
ATOM      1  C   UNL d   1      10.237   6.099  -7.992  0.00  0.00     0.078 C 
ATOM      2  C   UNL d   1       9.858   6.222  -9.151  0.00  0.00    -0.116 C 
ATOM      3  C   UNL d   1       9.422   6.379 -10.539  0.00  0.00     0.354 C 
ENDROOT
BRANCH   3   4
ATOM      4  N   UNL d   1       8.250   5.565 -10.806  0.00  0.00     0.354 N 
BRANCH   4   5
ATOM      5  C   UNL d   1       7.736   5.778 -12.159  0.00  0.00     0.280 C 
ATOM      6  C   UNL d   1       7.912   4.556 -13.017  0.00  0.00     0.009 A 
ATOM      7  C   UNL d   1       6.709   3.935 -13.300  0.00  0.00    -0.024 A 
ATOM      8  C   UNL d   1       9.127   4.026 -13.465  0.00  0.00     0.022 A 
ATOM      9  C   UNL d   1       5.554   4.680 -12.690  0.00  0.00     0.029 C 
ATOM     10  C   UNL d   1       6.653   2.745 -14.044  0.00  0.00    -0.003 A 
ATOM     11  C   UNL d   1       6.200   5.972 -12.133  0.00  0.00     0.045 C 
ATOM     12  C   UNL d   1       7.875   2.191 -14.505  0.00  0.00     0.024 A 
ATOM     13  C   UNL d   1       9.109   2.836 -14.231  0.00  0.00     0.094 A 
BRANCH  13  14
ATOM     14  O   UNL d   1      10.262   2.223 -14.684  0.00  0.00    -0.331 OA
BRANCH  14  15
ATOM     15  C   UNL d   1      11.352   3.040 -15.099  0.00  0.00     0.151 C 
BRANCH  15  16
ATOM     16  C   UNL d   1      11.054   3.595 -16.506  0.00  0.00     0.068 C 
BRANCH  16  17
ATOM     17  C   UNL d   1      12.337   3.862 -17.317  0.00  0.00     0.253 C 
BRANCH  17  18
ATOM     18  N   UNL d   1      12.960   5.139 -16.960  0.00  0.00     0.137 N 
ATOM     19  C   UNL d   1      14.350   5.138 -17.430  0.00  0.00     0.250 C 
ATOM     20  C   UNL d   1      15.048   6.455 -17.040  0.00  0.00     0.035 C 
ATOM     21  C   UNL d   1      14.301   7.663 -17.615  0.00  0.00     0.004 C 
ATOM     22  C   UNL d   1      12.828   7.589 -17.210  0.00  0.00     0.035 C 
ATOM     23  C   UNL d   1      12.226   6.235 -17.603  0.00  0.00     0.250 C 
ENDBRANCH  17  18
ENDBRANCH  16  17
ENDBRANCH  15  16
ENDBRANCH  14  15
ENDBRANCH  13  14
ENDBRANCH   4   5
ENDBRANCH   3   4
TORSDOF 7
