REMARK  5 active torsions:
REMARK  status: ('A' for Active; 'I' for Inactive)
REMARK    1  A    between atoms: N_3  and  C_4 
REMARK    2  A    between atoms: C_4  and  C_5 
REMARK    3  A    between atoms: C_5  and  N_6 
REMARK    4  A    between atoms: C_9  and  C_10 
REMARK    5  A    between atoms: N_18  and  C_19 
ROOT
ATOM      1  O   UNL d   1      10.227   4.870 -12.849  0.00  0.00    -0.247 OA
ATOM      2  C   UNL d   1       9.053   4.471 -12.849  0.00  0.00     0.328 A 
ATOM      3  N   UNL d   1       8.139   4.722 -11.912  0.00  0.00    -0.298 N 
ATOM      4  C   UNL d   1       6.818   4.216 -12.220  0.00  0.00     0.131 A 
ATOM      5  C   UNL d   1       7.064   3.484 -13.539  0.00  0.00     0.135 A 
ATOM      6  N   UNL d   1       8.475   3.741 -13.808  0.00  0.00    -0.278 N 
ENDROOT
BRANCH   3   7
ATOM      7  C   UNL d   1       8.354   5.605 -10.782  0.00  0.00     0.141 C 
BRANCH   7   8
ATOM      8  C   UNL d   1       9.206   4.894  -9.694  0.00  0.00     0.274 C 
BRANCH   8   9
ATOM      9  N   UNL d   1       9.819   5.789  -8.712  0.00  0.00     0.139 N 
ATOM     10  C   UNL d   1      10.535   6.887  -9.373  0.00  0.00     0.251 C 
ATOM     11  C   UNL d   1      11.302   7.738  -8.364  0.00  0.00     0.044 C 
ATOM     12  C   UNL d   1      10.327   8.310  -7.319  0.00  0.00     0.099 C 
ATOM     13  C   UNL d   1       9.486   7.167  -6.715  0.00  0.00     0.044 C 
ATOM     14  C   UNL d   1       8.810   6.319  -7.800  0.00  0.00     0.251 C 
BRANCH  12  15
ATOM     15  C   UNL d   1      11.078   9.090  -6.219  0.00  0.00     0.398 C 
ATOM     16  F   UNL d   1      11.859  10.006  -6.787  0.00  0.00    -0.170 F 
ATOM     17  F   UNL d   1      10.261   9.706  -5.376  0.00  0.00    -0.170 F 
ATOM     18  F   UNL d   1      11.839   8.256  -5.511  0.00  0.00    -0.170 F 
ENDBRANCH  12  15
ENDBRANCH   8   9
ENDBRANCH   7   8
ENDBRANCH   3   7
BRANCH   6  19
ATOM     19  C   UNL d   1       9.164   3.234 -14.942  0.00  0.00     0.092 A 
ATOM     20  C   UNL d   1       9.173   1.850 -15.214  0.00  0.00     0.166 A 
ATOM     21  C   UNL d   1       9.872   1.363 -16.341  0.00  0.00     0.087 A 
ATOM     22  F   UNL d   1       8.540   0.981 -14.389  0.00  0.00    -0.202 F 
ATOM     23  C   UNL d   1      10.555   2.262 -17.188  0.00  0.00     0.014 A 
ATOM     24 CL   UNL d   1       9.885  -0.327 -16.690  0.00  0.00    -0.080 Cl
ATOM     25  C   UNL d   1      10.552   3.644 -16.911  0.00  0.00     0.003 A 
ATOM     26  C   UNL d   1       9.859   4.123 -15.784  0.00  0.00     0.020 A 
ENDBRANCH   6  19
TORSDOF 5
