REMARK  13 active torsions:
REMARK  status: ('A' for Active; 'I' for Inactive)
REMARK    1  A    between atoms: C_2  and  C_3 
REMARK    2  A    between atoms: C_3  and  C_4 
REMARK    3  A    between atoms: C_4  and  N_5 
REMARK    4  A    between atoms: C_7  and  C_8 
REMARK    5  A    between atoms: C_8  and  C_9 
REMARK    6  A    between atoms: C_9  and  C_10 
REMARK    7  A    between atoms: C_10  and  O_11 
REMARK    8  A    between atoms: O_11  and  C_12 
REMARK    9  A    between atoms: C_15  and  C_16 
REMARK   10  A    between atoms: C_16  and  N_17 
REMARK   11  A    between atoms: N_20  and  C_21 
REMARK   12  A    between atoms: C_26  and  O_27 
REMARK   13  A    between atoms: C_32  and  O_33 
ROOT
ATOM      1  C   UNL d   1      12.894   2.858 -20.909  0.00  0.00     0.116 A 
ATOM      2  C   UNL d   1      13.652   1.937 -20.146  0.00  0.00     0.026 A 
ATOM      3  C   UNL d   1      13.008   1.022 -19.276  0.00  0.00    -0.000 A 
ATOM      4  C   UNL d   1      11.604   1.006 -19.184  0.00  0.00     0.013 A 
ATOM      5  C   UNL d   1      10.862   1.911 -19.992  0.00  0.00     0.024 A 
ATOM      6  C   UNL d   1      11.491   2.853 -20.838  0.00  0.00     0.116 A 
ENDROOT
BRANCH   4   7
ATOM      7  C   UNL d   1      10.916   0.019 -18.229  0.00  0.00     0.277 C 
BRANCH   7   8
ATOM      8  N   UNL d   1       9.881   0.606 -17.366  0.00  0.00     0.145 N 
ATOM      9  C   UNL d   1       8.559   0.646 -18.036  0.00  0.00     0.275 C 
ATOM     10  C   UNL d   1       7.539   1.360 -17.152  0.00  0.00     0.137 C 
ATOM     11  N   UNL d   1       7.411   0.662 -15.898  0.00  0.00    -0.343 N 
ATOM     12  C   UNL d   1       8.660   0.396 -15.198  0.00  0.00     0.137 C 
ATOM     13  C   UNL d   1       9.713  -0.218 -16.159  0.00  0.00     0.275 C 
BRANCH  11  14
ATOM     14  C   UNL d   1       6.184   0.123 -15.484  0.00  0.00     0.079 A 
ATOM     15  C   UNL d   1       5.310  -0.568 -16.371  0.00  0.00     0.110 A 
ATOM     16  C   UNL d   1       4.064  -1.041 -15.884  0.00  0.00     0.026 A 
ATOM     17  C   UNL d   1       3.687  -0.812 -14.549  0.00  0.00     0.002 A 
ATOM     18  C   UNL d   1       4.559  -0.136 -13.685  0.00  0.00     0.002 A 
ATOM     19  C   UNL d   1       5.805   0.317 -14.141  0.00  0.00     0.019 A 
BRANCH  15  20
ATOM     20  O   UNL d   1       5.723  -0.758 -17.677  0.00  0.00    -0.327 OA
ATOM     21  C   UNL d   1       4.880  -1.463 -18.569  0.00  0.00     0.181 C 
ENDBRANCH  15  20
ENDBRANCH  11  14
ENDBRANCH   7   8
ENDBRANCH   4   7
BRANCH   6  22
ATOM     22  O   UNL d   1      10.762   3.742 -21.608  0.00  0.00    -0.326 OA
ATOM     23  C   UNL d   1       9.336   3.711 -21.526  0.00  0.00     0.181 C 
ENDBRANCH   6  22
BRANCH   1  24
ATOM     24  O   UNL d   1      13.543   3.724 -21.747  0.00  0.00    -0.329 OA
BRANCH  24  25
ATOM     25  C   UNL d   1      13.546   5.070 -21.301  0.00  0.00     0.149 C 
BRANCH  25  26
ATOM     26  C   UNL d   1      14.755   5.230 -20.374  0.00  0.00     0.039 C 
BRANCH  26  27
ATOM     27  C   UNL d   1      14.895   6.630 -19.780  0.00  0.00     0.052 C 
BRANCH  27  28
ATOM     28  C   UNL d   1      16.167   6.756 -19.002  0.00  0.00     0.101 A 
ATOM     29  C   UNL d   1      17.320   7.402 -19.343  0.00  0.00     0.113 A 
ATOM     30  N   UNL d   1      18.152   7.163 -18.268  0.00  0.00    -0.231 N 
ATOM     31  N   UNL d   1      17.541   6.406 -17.325  0.00  0.00    -0.064 NA
ATOM     32  N   UNL d   1      16.341   6.162 -17.752  0.00  0.00    -0.133 NA
BRANCH  30  33
ATOM     33  C   UNL d   1      19.515   7.621 -18.067  0.00  0.00     0.129 C 
BRANCH  33  34
ATOM     34  C   UNL d   1      19.596   8.878 -17.176  0.00  0.00     0.026 C 
BRANCH  34  35
ATOM     35  C   UNL d   1      18.748  10.058 -17.653  0.00  0.00     0.002 C 
ATOM     36  C   UNL d   1      19.355  10.736 -18.883  0.00  0.00     0.000 C 
ENDBRANCH  34  35
ENDBRANCH  33  34
ENDBRANCH  30  33
ENDBRANCH  27  28
ENDBRANCH  26  27
ENDBRANCH  25  26
ENDBRANCH  24  25
ENDBRANCH   1  24
TORSDOF 13
