REMARK  1 active torsions:
REMARK  status: ('A' for Active; 'I' for Inactive)
REMARK    1  A    between atoms: C_6  and  N_7 
ROOT
ATOM      1 CL   UNL d   1      12.264   6.800  -2.482  0.00  0.00    -0.082 Cl
ATOM      2  C   UNL d   1      11.785   7.802  -3.801  0.00  0.00     0.059 A 
ATOM      3  C   UNL d   1      11.608   9.182  -3.602  0.00  0.00     0.011 A 
ATOM      4  C   UNL d   1      11.198   9.989  -4.675  0.00  0.00     0.002 A 
ATOM      5  C   UNL d   1      11.000   9.437  -5.954  0.00  0.00     0.017 A 
ATOM      6  C   UNL d   1      11.163   8.052  -6.160  0.00  0.00     0.057 A 
ATOM      7  C   UNL d   1      11.522   7.234  -5.062  0.00  0.00     0.028 A 
ENDROOT
BRANCH   6   8
ATOM      8  N   UNL d   1      10.999   7.508  -7.443  0.00  0.00    -0.344 N 
ATOM      9  C   UNL d   1      11.455   8.174  -8.654  0.00  0.00     0.140 C 
ATOM     10  C   UNL d   1      10.301   8.244  -9.672  0.00  0.00     0.314 C 
ATOM     11  N   UNL d   1       9.754   6.912  -9.930  0.00  0.00     0.343 N 
ATOM     12  C   UNL d   1       9.219   6.367  -8.684  0.00  0.00     0.314 C 
ATOM     13  C   UNL d   1      10.334   6.234  -7.638  0.00  0.00     0.140 C 
ENDBRANCH   6   8
TORSDOF 1
