REMARK  11 active torsions:
REMARK  status: ('A' for Active; 'I' for Inactive)
REMARK    1  A    between atoms: C_9  and  C_10 
REMARK    2  A    between atoms: C_10  and  C_12 
REMARK    3  A    between atoms: C_12  and  N_13 
REMARK    4  A    between atoms: N_13  and  C_14 
REMARK    5  A    between atoms: C_14  and  C_15 
REMARK    6  A    between atoms: C_15  and  C_16 
REMARK    7  A    between atoms: C_20  and  C_21 
REMARK    8  A    between atoms: C_21  and  N_22 
REMARK    9  A    between atoms: N_22  and  C_23 
REMARK   10  A    between atoms: C_23  and  C_24 
REMARK   11  A    between atoms: C_24  and  C_25 
ROOT
ATOM      1  C   UNL d   1       8.631   4.530 -12.475  0.00  0.00    -0.020 A 
ATOM      2  C   UNL d   1       8.358   5.446 -13.486  0.00  0.00    -0.004 A 
ATOM      3  C   UNL d   1       8.778   5.147 -14.790  0.00  0.00    -0.001 A 
ATOM      4  C   UNL d   1       9.474   3.997 -15.128  0.00  0.00    -0.002 A 
ATOM      5  C   UNL d   1       9.751   3.068 -14.123  0.00  0.00     0.013 A 
ATOM      6  C   UNL d   1       9.329   3.356 -12.817  0.00  0.00    -0.006 A 
ENDROOT
BRANCH   1   7
ATOM      7  C   UNL d   1       8.176   4.817 -11.053  0.00  0.00     0.065 C 
BRANCH   7   8
ATOM      8  C   UNL d   1       9.318   5.320 -10.166  0.00  0.00     0.295 C 
BRANCH   8   9
ATOM      9  N   UNL d   1       8.842   5.660  -8.832  0.00  0.00     0.343 N 
BRANCH   9  10
ATOM     10  C   UNL d   1       9.876   6.215  -7.963  0.00  0.00     0.327 C 
BRANCH  10  11
ATOM     11  C   UNL d   1       9.274   6.752  -6.651  0.00  0.00     0.211 C 
ATOM     12  O   UNL d   1       8.370   7.787  -6.939  0.00  0.00    -0.216 OA
BRANCH  11  13
ATOM     13  C   UNL d   1      10.372   7.202  -5.682  0.00  0.00     0.018 C 
ATOM     14  C   UNL d   1      10.799   6.401  -4.623  0.00  0.00     0.001 C 
ATOM     15  C   UNL d   1      11.748   6.745  -3.656  0.00  0.00     0.029 C 
ATOM     16  C   UNL d   1      12.296   8.007  -3.724  0.00  0.00     0.149 C 
ATOM     17  C   UNL d   1      11.981   8.765  -4.843  0.00  0.00     0.116 C 
ATOM     18  O   UNL d   1      13.003   8.461  -2.663  0.00  0.00    -0.189 OA
ATOM     19  N   UNL d   1      12.573   9.916  -5.184  0.00  0.00    -0.200 NA
ATOM     20  C   UNL d   1      11.022   8.413  -5.773  0.00  0.00     0.052 C 
ATOM     21  C   UNL d   1      11.965  10.576  -6.192  0.00  0.00     0.311 C 
ATOM     22  O   UNL d   1      12.262  11.719  -6.457  0.00  0.00    -0.258 OA
ATOM     23  S   UNL d   1      10.766   9.572  -6.994  0.00  0.00    -0.024 SA
ENDBRANCH  11  13
ENDBRANCH  10  11
ENDBRANCH   9  10
ENDBRANCH   8   9
ENDBRANCH   7   8
ENDBRANCH   1   7
BRANCH   5  24
ATOM     24  C   UNL d   1      10.445   1.757 -14.452  0.00  0.00     0.317 C 
BRANCH  24  25
ATOM     25  N   UNL d   1       9.515   0.651 -14.597  0.00  0.00     0.344 N 
BRANCH  25  26
ATOM     26  C   UNL d   1       8.727   0.822 -15.800  0.00  0.00     0.295 C 
BRANCH  26  27
ATOM     27  C   UNL d   1       7.399   0.080 -15.711  0.00  0.00     0.065 C 
BRANCH  27  28
ATOM     28  C   UNL d   1       6.616   0.004 -17.012  0.00  0.00    -0.009 A 
ATOM     29  C   UNL d   1       5.274  -0.447 -17.023  0.00  0.00     0.054 A 
ATOM     30  C   UNL d   1       4.553  -0.435 -18.234  0.00  0.00     0.011 A 
ATOM     31 CL   UNL d   1       4.482  -0.981 -15.578  0.00  0.00    -0.083 Cl
ATOM     32  C   UNL d   1       5.158   0.001 -19.427  0.00  0.00     0.001 A 
ATOM     33  C   UNL d   1       6.499   0.409 -19.424  0.00  0.00    -0.000 A 
ATOM     34  C   UNL d   1       7.223   0.396 -18.229  0.00  0.00    -0.003 A 
ENDBRANCH  27  28
ENDBRANCH  26  27
ENDBRANCH  25  26
ENDBRANCH  24  25
ENDBRANCH   5  24
TORSDOF 11
