REMARK  2 active torsions:
REMARK  status: ('A' for Active; 'I' for Inactive)
REMARK    1  A    between atoms: N_11  and  C_12 
REMARK    2  A    between atoms: C_12  and  C_13 
ROOT
ATOM      1  N   UNL d   1       4.315  -0.335 -13.707  0.00  0.00    -0.191 NA
ATOM      2  C   UNL d   1       5.164   0.393 -13.992  0.00  0.00     0.101 C 
ATOM      3  C   UNL d   1       6.226   1.336 -14.339  0.00  0.00     0.068 A 
ATOM      4  C   UNL d   1       7.091   1.061 -15.410  0.00  0.00     0.010 A 
ATOM      5  C   UNL d   1       8.143   1.952 -15.707  0.00  0.00    -0.004 A 
ATOM      6  C   UNL d   1       8.339   3.105 -14.920  0.00  0.00    -0.026 A 
ATOM      7  C   UNL d   1       7.452   3.402 -13.862  0.00  0.00    -0.024 A 
ATOM      8  C   UNL d   1       6.372   2.531 -13.606  0.00  0.00     0.006 A 
ATOM      9  C   UNL d   1       7.615   4.670 -13.025  0.00  0.00     0.057 C 
ATOM     10  C   UNL d   1       7.685   4.434 -11.507  0.00  0.00     0.255 C 
ATOM     11  N   UNL d   1       8.286   5.674 -10.989  0.00  0.00     0.142 N 
ATOM     12  C   UNL d   1       9.378   5.873 -11.909  0.00  0.00     0.251 C 
ATOM     13  C   UNL d   1       8.893   5.467 -13.269  0.00  0.00     0.040 C 
ATOM     14  C   UNL d   1      10.010   4.742 -14.044  0.00  0.00     0.007 C 
ATOM     15  C   UNL d   1       9.466   4.055 -15.288  0.00  0.00     0.026 C 
ENDROOT
BRANCH  11  16
ATOM     16  C   UNL d   1       8.707   5.568  -9.582  0.00  0.00     0.277 C 
BRANCH  16  17
ATOM     17  C   UNL d   1       9.539   6.743  -9.015  0.00  0.00     0.011 A 
ATOM     18  C   UNL d   1       9.104   7.452  -7.877  0.00  0.00    -0.002 A 
ATOM     19  C   UNL d   1       9.844   8.570  -7.386  0.00  0.00    -0.000 A 
ATOM     20  C   UNL d   1      11.023   8.961  -8.030  0.00  0.00    -0.000 A 
ATOM     21  C   UNL d   1      11.478   8.228  -9.160  0.00  0.00    -0.000 A 
ATOM     22  C   UNL d   1      10.767   7.107  -9.604  0.00  0.00    -0.002 A 
ENDBRANCH  16  17
ENDBRANCH  11  16
TORSDOF 2
