REMARK  5 active torsions:
REMARK  status: ('A' for Active; 'I' for Inactive)
REMARK    1  A    between atoms: N_3  and  C_4 
REMARK    2  A    between atoms: C_4  and  C_5 
REMARK    3  A    between atoms: C_5  and  N_6 
REMARK    4  A    between atoms: C_9  and  C_10 
REMARK    5  A    between atoms: N_18  and  C_19 
ROOT
ATOM      1  O   UNL d   1      10.266   4.291 -12.837  0.00  0.00    -0.247 OA
ATOM      2  C   UNL d   1       9.058   4.526 -12.772  0.00  0.00     0.328 A 
ATOM      3  N   UNL d   1       8.505   5.475 -12.014  0.00  0.00    -0.298 N 
ATOM      4  C   UNL d   1       7.063   5.566 -12.150  0.00  0.00     0.131 A 
ATOM      5  C   UNL d   1       6.765   4.430 -13.124  0.00  0.00     0.135 A 
ATOM      6  N   UNL d   1       8.086   3.903 -13.463  0.00  0.00    -0.280 N 
ENDROOT
BRANCH   3   7
ATOM      7  C   UNL d   1       9.237   6.408 -11.175  0.00  0.00     0.141 C 
BRANCH   7   8
ATOM      8  C   UNL d   1       9.367   5.849  -9.747  0.00  0.00     0.274 C 
BRANCH   8   9
ATOM      9  N   UNL d   1      10.141   6.752  -8.904  0.00  0.00     0.139 N 
ATOM     10  C   UNL d   1       9.339   7.942  -8.622  0.00  0.00     0.251 C 
ATOM     11  C   UNL d   1      10.144   8.941  -7.805  0.00  0.00     0.044 C 
ATOM     12  C   UNL d   1      10.611   8.342  -6.471  0.00  0.00     0.099 C 
ATOM     13  C   UNL d   1      11.315   7.002  -6.758  0.00  0.00     0.044 C 
ATOM     14  C   UNL d   1      10.452   6.088  -7.641  0.00  0.00     0.251 C 
BRANCH  12  15
ATOM     15  C   UNL d   1      11.524   9.318  -5.707  0.00  0.00     0.398 C 
ATOM     16  F   UNL d   1      11.933   8.791  -4.554  0.00  0.00    -0.170 F 
ATOM     17  F   UNL d   1      12.591   9.605  -6.443  0.00  0.00    -0.170 F 
ATOM     18  F   UNL d   1      10.877  10.448  -5.439  0.00  0.00    -0.170 F 
ENDBRANCH  12  15
ENDBRANCH   8   9
ENDBRANCH   7   8
ENDBRANCH   3   7
BRANCH   6  19
ATOM     19  C   UNL d   1       8.291   2.806 -14.360  0.00  0.00     0.065 A 
ATOM     20  C   UNL d   1       9.470   2.693 -15.128  0.00  0.00     0.029 A 
ATOM     21  C   UNL d   1       9.677   1.596 -15.982  0.00  0.00     0.059 A 
ATOM     22  C   UNL d   1       8.688   0.599 -16.100  0.00  0.00     0.011 A 
ATOM     23 CL   UNL d   1      11.148   1.487 -16.877  0.00  0.00    -0.082 Cl
ATOM     24  C   UNL d   1       7.501   0.708 -15.355  0.00  0.00     0.002 A 
ATOM     25  C   UNL d   1       7.296   1.804 -14.490  0.00  0.00     0.017 A 
ENDBRANCH   6  19
TORSDOF 5
