REMARK  2 active torsions:
REMARK  status: ('A' for Active; 'I' for Inactive)
REMARK    1  A    between atoms: C_2  and  C_3 
REMARK    2  A    between atoms: C_3  and  N_4 
ROOT
ATOM      1  N   UNL d   1      10.383   6.583  -9.323  0.00  0.00     0.135 N 
ATOM      2  C   UNL d   1       9.826   7.630 -10.168  0.00  0.00     0.250 C 
ATOM      3  C   UNL d   1      10.245   8.913  -9.514  0.00  0.00     0.038 C 
ATOM      4  C   UNL d   1      10.055   8.578  -8.044  0.00  0.00     0.038 C 
ATOM      5  C   UNL d   1      10.943   9.409  -7.106  0.00  0.00     0.030 C 
ATOM      6  C   UNL d   1      11.226   8.716  -5.788  0.00  0.00    -0.001 A 
ATOM      7  C   UNL d   1      11.270   9.427  -4.582  0.00  0.00     0.127 A 
ATOM      8  O   UNL d   1      10.975  10.750  -4.587  0.00  0.00    -0.191 OA
ATOM      9  C   UNL d   1      11.587   8.778  -3.371  0.00  0.00     0.027 A 
ATOM     10  C   UNL d   1      11.833   7.391  -3.369  0.00  0.00     0.002 A 
ATOM     11  C   UNL d   1      11.755   6.669  -4.574  0.00  0.00    -0.004 A 
ATOM     12  C   UNL d   1      11.450   7.326  -5.777  0.00  0.00    -0.022 A 
ATOM     13  C   UNL d   1      11.438   6.604  -7.105  0.00  0.00     0.059 C 
ATOM     14  C   UNL d   1      10.233   7.043  -7.948  0.00  0.00     0.224 C 
ENDROOT
BRANCH   1  15
ATOM     15  C   UNL d   1       9.832   5.253  -9.588  0.00  0.00     0.250 C 
BRANCH  15  16
ATOM     16  C   UNL d   1       8.298   5.179  -9.643  0.00  0.00     0.035 C 
ATOM     17  C   UNL d   1       7.715   5.432 -11.055  0.00  0.00     0.002 C 
ENDBRANCH  15  16
ENDBRANCH   1  15
TORSDOF 2
