REMARK  3 active torsions:
REMARK  status: ('A' for Active; 'I' for Inactive)
REMARK    1  A    between atoms: C_2  and  C_3 
REMARK    2  A    between atoms: C_3  and  N_4 
REMARK    3  A    between atoms: C_19  and  O_20 
ROOT
ATOM      1  N   UNL d   1       6.319   0.242 -13.736  0.00  0.00     0.140 N 
ATOM      2  C   UNL d   1       5.038   0.887 -13.598  0.00  0.00     0.255 C 
ATOM      3  C   UNL d   1       5.190   2.143 -12.742  0.00  0.00     0.061 C 
ATOM      4  C   UNL d   1       6.266   3.116 -13.210  0.00  0.00    -0.022 A 
ATOM      5  C   UNL d   1       6.382   4.435 -12.759  0.00  0.00    -0.004 A 
ATOM      6  C   UNL d   1       7.505   5.191 -13.126  0.00  0.00    -0.000 A 
ATOM      7  C   UNL d   1       8.489   4.642 -13.971  0.00  0.00    -0.000 A 
ATOM      8  C   UNL d   1       8.411   3.320 -14.493  0.00  0.00    -0.001 A 
ATOM      9  C   UNL d   1       7.291   2.578 -14.043  0.00  0.00     0.005 A 
ATOM     10  C   UNL d   1       7.213   1.122 -14.508  0.00  0.00     0.245 C 
ATOM     11  C   UNL d   1       8.627   0.493 -14.601  0.00  0.00     0.064 C 
ATOM     12  C   UNL d   1       9.585   1.335 -15.405  0.00  0.00    -0.018 A 
ATOM     13  C   UNL d   1      10.568   0.686 -16.175  0.00  0.00    -0.004 A 
ATOM     14  C   UNL d   1      11.411   1.445 -16.996  0.00  0.00     0.002 A 
ATOM     15  C   UNL d   1      11.243   2.836 -17.066  0.00  0.00     0.024 A 
ATOM     16  C   UNL d   1      10.253   3.499 -16.290  0.00  0.00     0.094 A 
ATOM     17  C   UNL d   1       9.437   2.739 -15.398  0.00  0.00     0.018 A 
ENDROOT
BRANCH   1  18
ATOM     18  C   UNL d   1       6.072  -1.057 -14.363  0.00  0.00     0.251 C 
BRANCH  18  19
ATOM     19  C   UNL d   1       5.491  -1.011 -15.816  0.00  0.00     0.035 C 
ATOM     20  C   UNL d   1       5.038  -2.370 -16.339  0.00  0.00     0.002 C 
ENDBRANCH  18  19
ENDBRANCH   1  18
BRANCH  16  21
ATOM     21  O   UNL d   1      10.024   4.854 -16.396  0.00  0.00    -0.328 OA
ATOM     22  C   UNL d   1      10.815   5.617 -17.296  0.00  0.00     0.181 C 
ENDBRANCH  16  21
TORSDOF 3
