REMARK  8 active torsions:
REMARK  status: ('A' for Active; 'I' for Inactive)
REMARK    1  A    between atoms: C_2  and  C_3 
REMARK    2  A    between atoms: C_3  and  C_4 
REMARK    3  A    between atoms: C_4  and  C_5 
REMARK       I    between atoms: C_5  and  N_7 
REMARK    4  A    between atoms: N_7  and  C_8 
REMARK    5  A    between atoms: C_11  and  C_12 
REMARK    6  A    between atoms: C_12  and  C_13 
REMARK    7  A    between atoms: C_13  and  N_14 
REMARK    8  A    between atoms: N_17  and  C_18 
ROOT
ATOM      1  N   UNL d   1       9.040   4.397 -14.394  0.00  0.00     0.141 N 
ATOM      2  C   UNL d   1       8.650   3.002 -14.184  0.00  0.00     0.274 C 
ATOM      3  C   UNL d   1       8.334   2.325 -15.518  0.00  0.00     0.138 C 
ATOM      4  N   UNL d   1       9.459   2.477 -16.435  0.00  0.00    -0.330 N 
ATOM      5  C   UNL d   1      10.004   3.823 -16.578  0.00  0.00     0.138 C 
ATOM      6  C   UNL d   1      10.274   4.426 -15.185  0.00  0.00     0.274 C 
ENDROOT
BRANCH   1   7
ATOM      7  C   UNL d   1       9.327   4.978 -13.100  0.00  0.00     0.250 C 
BRANCH   7   8
ATOM      8  C   UNL d   1       8.049   5.501 -12.415  0.00  0.00     0.035 C 
BRANCH   8   9
ATOM      9  C   UNL d   1       8.309   5.959 -10.972  0.00  0.00     0.002 C 
ATOM     10  C   UNL d   1       8.694   4.795 -10.039  0.00  0.00     0.002 C 
ATOM     11  C   UNL d   1       8.982   5.262  -8.611  0.00  0.00     0.024 C 
ATOM     12  C   UNL d   1      10.054   6.368  -8.581  0.00  0.00     0.106 C 
ATOM     13  C   UNL d   1       9.631   7.554  -9.460  0.00  0.00     0.024 C 
ATOM     14  C   UNL d   1       9.328   7.107 -10.891  0.00  0.00     0.002 C 
BRANCH  12  15
ATOM     15  N   UNL d   1      10.256   6.781  -7.200  0.00  0.00    -0.240 NA
ATOM     16  C   UNL d   1      11.161   7.671  -6.782  0.00  0.00     0.251 C 
ATOM     17  O   UNL d   1      11.909   8.296  -7.535  0.00  0.00    -0.271 OA
BRANCH  16  18
ATOM     18  C   UNL d   1      11.258   7.851  -5.273  0.00  0.00     0.090 C 
BRANCH  18  19
ATOM     19  C   UNL d   1      11.898   9.184  -4.842  0.00  0.00     0.010 C 
BRANCH  19  20
ATOM     20  C   UNL d   1      11.750   9.444  -3.337  0.00  0.00     0.001 C 
ATOM     21  C   UNL d   1      12.338   8.330  -2.457  0.00  0.00     0.000 C 
ENDBRANCH  19  20
ENDBRANCH  18  19
ENDBRANCH  16  18
ENDBRANCH  12  15
ENDBRANCH   8   9
ENDBRANCH   7   8
ENDBRANCH   1   7
BRANCH   4  22
ATOM     22  C   UNL d   1      10.002   1.369 -17.118  0.00  0.00     0.138 A 
ATOM     23  C   UNL d   1       9.219   0.276 -17.541  0.00  0.00     0.036 A 
ATOM     24  C   UNL d   1       9.799  -0.782 -18.210  0.00  0.00     0.095 A 
ATOM     25  C   UNL d   1       7.744   0.029 -17.458  0.00  0.00     0.064 C 
ATOM     26  C   UNL d   1      11.184  -0.780 -18.456  0.00  0.00     0.045 A 
ATOM     27  O   UNL d   1       8.905  -1.738 -18.604  0.00  0.00    -0.331 OA
ATOM     28  C   UNL d   1      11.902   0.351 -18.014  0.00  0.00     0.103 A 
ATOM     29  N   UNL d   1      11.335   1.395 -17.369  0.00  0.00    -0.228 NA
ATOM     30  C   UNL d   1       7.587  -1.257 -18.288  0.00  0.00     0.154 C 
ENDBRANCH   4  22
TORSDOF 8
