REMARK  8 active torsions:
REMARK  status: ('A' for Active; 'I' for Inactive)
REMARK    1  A    between atoms: C_2  and  C_3 
REMARK    2  A    between atoms: C_7  and  N_8 
REMARK    3  A    between atoms: N_11  and  C_12 
REMARK    4  A    between atoms: C_12  and  C_13 
REMARK    5  A    between atoms: C_13  and  C_15 
REMARK    6  A    between atoms: C_15  and  C_16 
REMARK    7  A    between atoms: C_16  and  N_17 
REMARK       I    between atoms: N_17  and  C_18 
REMARK    8  A    between atoms: C_18  and  C_20 
ROOT
ATOM      1  C   UNL d   1       7.680   6.730 -12.609  0.00  0.00     0.283 C 
ENDROOT
BRANCH   1   2
ATOM      2  N   UNL d   1       7.692   5.274 -12.708  0.00  0.00     0.144 N 
ATOM      3  C   UNL d   1       6.335   4.769 -12.955  0.00  0.00     0.274 C 
ATOM      4  C   UNL d   1       6.296   3.248 -13.027  0.00  0.00     0.137 C 
ATOM      5  N   UNL d   1       7.273   2.765 -14.008  0.00  0.00    -0.344 N 
ATOM      6  C   UNL d   1       8.636   3.251 -13.826  0.00  0.00     0.137 C 
ATOM      7  C   UNL d   1       8.626   4.785 -13.743  0.00  0.00     0.274 C 
BRANCH   5   8
ATOM      8  C   UNL d   1       6.970   1.777 -14.973  0.00  0.00     0.067 A 
ATOM      9  C   UNL d   1       7.494   1.946 -16.271  0.00  0.00     0.018 A 
ATOM     10  C   UNL d   1       7.156   1.064 -17.308  0.00  0.00     0.001 A 
ATOM     11  C   UNL d   1       6.315  -0.027 -17.053  0.00  0.00    -0.003 A 
ATOM     12  C   UNL d   1       5.824  -0.253 -15.754  0.00  0.00    -0.010 A 
ATOM     13  C   UNL d   1       6.151   0.646 -14.709  0.00  0.00     0.069 A 
ATOM     14 CL   UNL d   1       5.535   0.345 -13.122  0.00  0.00    -0.081 Cl
BRANCH  12  15
ATOM     15  C   UNL d   1       4.929  -1.460 -15.517  0.00  0.00     0.027 C 
ATOM     16  C   UNL d   1       3.466  -1.139 -15.819  0.00  0.00     0.005 C 
ENDBRANCH  12  15
ENDBRANCH   5   8
ENDBRANCH   1   2
BRANCH   1  17
ATOM     17  C   UNL d   1       8.965   7.342 -12.028  0.00  0.00     0.188 C 
ATOM     18  O   UNL d   1       8.667   8.704 -11.813  0.00  0.00    -0.221 OA
BRANCH  17  19
ATOM     19  C   UNL d   1       9.382   6.711 -10.675  0.00  0.00     0.061 C 
BRANCH  19  20
ATOM     20  C   UNL d   1      10.648   7.326 -10.063  0.00  0.00     0.132 C 
BRANCH  20  21
ATOM     21  N   UNL d   1      10.643   7.240  -8.607  0.00  0.00    -0.233 NA
ATOM     22  C   UNL d   1      10.204   8.251  -7.846  0.00  0.00     0.294 C 
ATOM     23  O   UNL d   1       9.531   9.185  -8.276  0.00  0.00    -0.264 OA
BRANCH  22  24
ATOM     24  C   UNL d   1      10.714   8.211  -6.457  0.00  0.00     0.158 A 
ATOM     25  N   UNL d   1      11.050   7.044  -5.786  0.00  0.00    -0.222 NA
ATOM     26  C   UNL d   1      11.466   7.430  -4.583  0.00  0.00     0.148 A 
ATOM     27  N   UNL d   1      11.459   8.843  -4.477  0.00  0.00    -0.288 N 
ATOM     28  C   UNL d   1      11.884   6.699  -3.450  0.00  0.00     0.037 A 
ATOM     29  C   UNL d   1      10.975   9.313  -5.682  0.00  0.00     0.106 A 
ATOM     30  C   UNL d   1      11.851   9.490  -3.337  0.00  0.00     0.082 A 
ATOM     31  C   UNL d   1      12.265   8.758  -2.253  0.00  0.00     0.019 A 
ATOM     32  C   UNL d   1      12.279   7.348  -2.311  0.00  0.00     0.005 A 
ENDBRANCH  22  24
ENDBRANCH  20  21
ENDBRANCH  19  20
ENDBRANCH  17  19
ENDBRANCH   1  17
TORSDOF 8
