REMARK  5 active torsions:
REMARK  status: ('A' for Active; 'I' for Inactive)
REMARK    1  A    between atoms: C_2  and  N_3 
REMARK    2  A    between atoms: C_7  and  C_8 
REMARK    3  A    between atoms: C_8  and  N_9 
REMARK       I    between atoms: N_9  and  C_10 
REMARK    4  A    between atoms: C_10  and  C_12 
REMARK    5  A    between atoms: C_19  and  O_20 
ROOT
ATOM      1  N   UNL d   1       8.197   5.032 -10.699  0.00  0.00    -0.232 NA
ATOM      2  C   UNL d   1       9.295   5.687 -10.995  0.00  0.00     0.277 C 
ATOM      3  O   UNL d   1       9.897   5.546 -12.063  0.00  0.00    -0.266 OA
ENDROOT
BRANCH   2   4
ATOM      4  C   UNL d   1       9.804   6.595  -9.944  0.00  0.00     0.083 A 
ATOM      5  C   UNL d   1      10.198   7.920 -10.276  0.00  0.00     0.124 A 
ATOM      6  C   UNL d   1      10.666   8.762  -9.285  0.00  0.00     0.154 A 
ATOM      7  C   UNL d   1      10.748   8.330  -7.977  0.00  0.00     0.041 A 
ATOM      8  O   UNL d   1      11.090   9.969  -9.668  0.00  0.00    -0.188 OA
ATOM      9  C   UNL d   1      10.354   7.026  -7.599  0.00  0.00     0.060 A 
ATOM     10  C   UNL d   1       9.878   6.127  -8.604  0.00  0.00     0.018 A 
ATOM     11 CL   UNL d   1      10.540   6.655  -5.929  0.00  0.00    -0.082 Cl
BRANCH   5  12
ATOM     12  O   UNL d   1      10.157   8.381 -11.541  0.00  0.00    -0.326 OA
ATOM     13  C   UNL d   1       8.896   8.822 -12.001  0.00  0.00     0.181 C 
ENDBRANCH   5  12
ENDBRANCH   2   4
BRANCH   1  14
ATOM     14  C   UNL d   1       7.722   4.012 -11.610  0.00  0.00     0.162 C 
BRANCH  14  15
ATOM     15  C   UNL d   1       6.958   4.553 -12.822  0.00  0.00     0.243 C 
ATOM     16  N   UNL d   1       6.911   3.583 -13.938  0.00  0.00     0.137 N 
ATOM     17  C   UNL d   1       5.874   2.624 -13.601  0.00  0.00     0.250 C 
ATOM     18  C   UNL d   1       4.792   3.473 -12.934  0.00  0.00     0.037 C 
ATOM     19  C   UNL d   1       5.489   4.748 -12.441  0.00  0.00     0.037 C 
BRANCH  16  20
ATOM     20  C   UNL d   1       8.129   2.966 -14.457  0.00  0.00     0.250 C 
ATOM     21  C   UNL d   1       9.143   4.040 -14.887  0.00  0.00     0.037 C 
ENDBRANCH  16  20
ENDBRANCH  14  15
ENDBRANCH   1  14
TORSDOF 5
