REMARK  6 active torsions:
REMARK  status: ('A' for Active; 'I' for Inactive)
REMARK    1  A    between atoms: C_6  and  N_7 
REMARK    2  A    between atoms: N_10  and  C_11 
REMARK    3  A    between atoms: C_11  and  C_12 
REMARK    4  A    between atoms: C_12  and  C_13 
REMARK    5  A    between atoms: C_13  and  N_14 
REMARK       I    between atoms: N_14  and  C_15 
REMARK    6  A    between atoms: C_15  and  C_17 
ROOT
ATOM      1  N   UNL d   1       9.849   7.554  -7.761  0.00  0.00    -0.344 N 
ATOM      2  C   UNL d   1       8.858   6.483  -7.647  0.00  0.00     0.137 C 
ATOM      3  C   UNL d   1       9.087   5.430  -8.750  0.00  0.00     0.274 C 
ATOM      4  N   UNL d   1       9.057   6.059 -10.077  0.00  0.00     0.141 N 
ATOM      5  C   UNL d   1      10.118   7.072 -10.150  0.00  0.00     0.274 C 
ATOM      6  C   UNL d   1       9.920   8.163  -9.086  0.00  0.00     0.137 C 
ENDROOT
BRANCH   4   7
ATOM      7  C   UNL d   1       9.231   5.033 -11.111  0.00  0.00     0.253 C 
BRANCH   7   8
ATOM      8  C   UNL d   1       8.894   5.560 -12.524  0.00  0.00     0.062 C 
BRANCH   8   9
ATOM      9  C   UNL d   1       9.230   4.540 -13.620  0.00  0.00     0.131 C 
BRANCH   9  10
ATOM     10  N   UNL d   1       8.239   3.480 -13.655  0.00  0.00    -0.234 NA
ATOM     11  C   UNL d   1       8.157   2.517 -14.585  0.00  0.00     0.278 C 
ATOM     12  O   UNL d   1       8.915   2.437 -15.554  0.00  0.00    -0.265 OA
BRANCH  11  13
ATOM     13  C   UNL d   1       7.080   1.500 -14.365  0.00  0.00     0.094 A 
ATOM     14  C   UNL d   1       7.085   0.214 -14.807  0.00  0.00     0.128 A 
ATOM     15  N   UNL d   1       5.905  -0.332 -14.360  0.00  0.00    -0.147 NA
ATOM     16  N   UNL d   1       5.163   0.532 -13.630  0.00  0.00    -0.152 NA
ATOM     17  C   UNL d   1       5.860   1.666 -13.638  0.00  0.00     0.087 A 
ATOM     18  C   UNL d   1       5.314   2.879 -12.938  0.00  0.00     0.054 C 
ENDBRANCH  11  13
ENDBRANCH   9  10
ENDBRANCH   8   9
ENDBRANCH   7   8
ENDBRANCH   4   7
BRANCH   1  19
ATOM     19  C   UNL d   1      10.660   7.981  -6.692  0.00  0.00     0.056 A 
ATOM     20  C   UNL d   1      11.246   9.271  -6.686  0.00  0.00     0.017 A 
ATOM     21  C   UNL d   1      12.060   9.682  -5.620  0.00  0.00     0.001 A 
ATOM     22  C   UNL d   1      12.285   8.834  -4.516  0.00  0.00    -0.004 A 
ATOM     23  C   UNL d   1      11.707   7.548  -4.512  0.00  0.00    -0.020 A 
ATOM     24  C   UNL d   1      11.973   6.583  -3.378  0.00  0.00     0.031 C 
ATOM     25  C   UNL d   1      10.916   7.129  -5.593  0.00  0.00     0.013 A 
ENDBRANCH   1  19
TORSDOF 6
