REMARK  8 active torsions:
REMARK  status: ('A' for Active; 'I' for Inactive)
REMARK    1  A    between atoms: O_2  and  C_3 
REMARK    2  A    between atoms: C_8  and  N_9 
REMARK    3  A    between atoms: N_12  and  C_13 
REMARK    4  A    between atoms: C_13  and  C_14 
REMARK    5  A    between atoms: C_14  and  C_15 
REMARK    6  A    between atoms: C_15  and  C_16 
REMARK    7  A    between atoms: C_16  and  N_17 
REMARK       I    between atoms: N_17  and  C_18 
REMARK    8  A    between atoms: C_18  and  C_20 
ROOT
ATOM      1  C   UNL d   1       9.484   5.405 -11.942  0.00  0.00     0.251 C 
ENDROOT
BRANCH   1   2
ATOM      2  N   UNL d   1      10.094   4.527 -12.948  0.00  0.00     0.141 N 
ATOM      3  C   UNL d   1       9.333   3.282 -13.047  0.00  0.00     0.274 C 
ATOM      4  C   UNL d   1       9.964   2.317 -14.058  0.00  0.00     0.137 C 
ATOM      5  N   UNL d   1      10.054   2.965 -15.362  0.00  0.00    -0.343 N 
ATOM      6  C   UNL d   1      10.726   4.265 -15.335  0.00  0.00     0.137 C 
ATOM      7  C   UNL d   1      10.090   5.176 -14.260  0.00  0.00     0.274 C 
BRANCH   5   8
ATOM      8  C   UNL d   1       9.467   2.451 -16.517  0.00  0.00     0.079 A 
ATOM      9  C   UNL d   1       8.183   1.830 -16.515  0.00  0.00     0.110 A 
ATOM     10  C   UNL d   1       7.678   1.268 -17.713  0.00  0.00     0.026 A 
ATOM     11  C   UNL d   1       8.410   1.354 -18.913  0.00  0.00     0.002 A 
ATOM     12  C   UNL d   1       9.656   1.993 -18.927  0.00  0.00     0.002 A 
ATOM     13  C   UNL d   1      10.184   2.532 -17.741  0.00  0.00     0.019 A 
BRANCH   9  14
ATOM     14  O   UNL d   1       7.453   1.847 -15.342  0.00  0.00    -0.327 OA
ATOM     15  C   UNL d   1       6.451   0.859 -15.164  0.00  0.00     0.181 C 
ENDBRANCH   9  14
ENDBRANCH   5   8
ENDBRANCH   1   2
BRANCH   1  16
ATOM     16  C   UNL d   1       9.563   4.806 -10.517  0.00  0.00     0.037 C 
BRANCH  16  17
ATOM     17  C   UNL d   1      10.169   5.778  -9.502  0.00  0.00     0.029 C 
BRANCH  17  18
ATOM     18  C   UNL d   1       9.226   6.901  -9.066  0.00  0.00     0.129 C 
BRANCH  18  19
ATOM     19  N   UNL d   1       9.678   7.627  -7.883  0.00  0.00    -0.234 NA
ATOM     20  C   UNL d   1      10.933   7.947  -7.537  0.00  0.00     0.278 C 
ATOM     21  O   UNL d   1      11.937   7.697  -8.199  0.00  0.00    -0.265 OA
BRANCH  20  22
ATOM     22  C   UNL d   1      11.026   8.679  -6.272  0.00  0.00     0.096 A 
ATOM     23  C   UNL d   1      11.457   8.143  -5.093  0.00  0.00     0.089 A 
ATOM     24  N   UNL d   1      11.485   9.221  -4.187  0.00  0.00    -0.228 N 
ATOM     25  C   UNL d   1      11.854   6.858  -4.617  0.00  0.00     0.019 A 
ATOM     26  N   UNL d   1      11.060  10.386  -4.776  0.00  0.00    -0.163 NA
ATOM     27  C   UNL d   1      11.862   9.092  -2.892  0.00  0.00     0.101 A 
ATOM     28  C   UNL d   1      10.839  10.043  -6.026  0.00  0.00     0.127 A 
ATOM     29  C   UNL d   1      12.213   7.845  -2.429  0.00  0.00     0.021 A 
ATOM     30  C   UNL d   1      12.220   6.728  -3.299  0.00  0.00     0.003 A 
ENDBRANCH  20  22
ENDBRANCH  18  19
ENDBRANCH  17  18
ENDBRANCH  16  17
ENDBRANCH   1  16
TORSDOF 8
