REMARK  3 active torsions:
REMARK  status: ('A' for Active; 'I' for Inactive)
REMARK    1  A    between atoms: O_2  and  C_3 
REMARK    2  A    between atoms: N_17  and  C_18 
REMARK    3  A    between atoms: C_18  and  C_19 
ROOT
ATOM      1  C   UNL d   1       8.357   5.528 -12.575  0.00  0.00     0.094 A 
ATOM      2  C   UNL d   1       7.192   5.965 -11.969  0.00  0.00     0.024 A 
ATOM      3  C   UNL d   1       5.951   5.380 -12.152  0.00  0.00     0.002 A 
ATOM      4  C   UNL d   1       5.849   4.255 -12.988  0.00  0.00    -0.004 A 
ATOM      5  C   UNL d   1       7.003   3.777 -13.623  0.00  0.00    -0.018 A 
ATOM      6  C   UNL d   1       8.258   4.428 -13.499  0.00  0.00     0.018 A 
ATOM      7  C   UNL d   1       9.418   3.929 -14.264  0.00  0.00    -0.001 A 
ATOM      8  C   UNL d   1      10.529   4.729 -14.630  0.00  0.00    -0.000 A 
ATOM      9  C   UNL d   1      11.624   4.226 -15.356  0.00  0.00    -0.000 A 
ATOM     10  C   UNL d   1      11.645   2.885 -15.754  0.00  0.00    -0.004 A 
ATOM     11  C   UNL d   1      10.559   2.058 -15.447  0.00  0.00    -0.022 A 
ATOM     12  C   UNL d   1       9.462   2.601 -14.737  0.00  0.00     0.005 A 
ATOM     13  C   UNL d   1       8.266   1.709 -14.381  0.00  0.00     0.246 C 
ATOM     14  C   UNL d   1       6.922   2.502 -14.415  0.00  0.00     0.064 C 
ATOM     15  N   UNL d   1       8.127   0.470 -15.147  0.00  0.00     0.144 N 
ATOM     16  C   UNL d   1       9.425  -0.188 -15.050  0.00  0.00     0.256 C 
ATOM     17  C   UNL d   1      10.426   0.609 -15.857  0.00  0.00     0.061 C 
ENDROOT
BRANCH  15  18
ATOM     18  C   UNL d   1       7.026  -0.337 -14.605  0.00  0.00     0.277 C 
BRANCH  18  19
ATOM     19  C   UNL d   1       5.920  -0.603 -15.611  0.00  0.00     0.011 A 
ATOM     20  C   UNL d   1       6.179  -0.670 -17.003  0.00  0.00    -0.002 A 
ATOM     21  C   UNL d   1       5.147  -0.993 -17.910  0.00  0.00    -0.000 A 
ATOM     22  C   UNL d   1       3.862  -1.289 -17.423  0.00  0.00    -0.000 A 
ATOM     23  C   UNL d   1       3.618  -1.269 -16.036  0.00  0.00    -0.000 A 
ATOM     24  C   UNL d   1       4.647  -0.950 -15.136  0.00  0.00    -0.002 A 
ENDBRANCH  18  19
ENDBRANCH  15  18
BRANCH   1  25
ATOM     25  O   UNL d   1       9.575   6.123 -12.300  0.00  0.00    -0.328 OA
ATOM     26  C   UNL d   1       9.647   7.112 -11.250  0.00  0.00     0.181 C 
ENDBRANCH   1  25
TORSDOF 3
