REMARK  6 active torsions:
REMARK  status: ('A' for Active; 'I' for Inactive)
REMARK    1  A    between atoms: C_2  and  C_3 
REMARK    2  A    between atoms: N_13  and  C_14 
REMARK    3  A    between atoms: C_14  and  C_15 
REMARK    4  A    between atoms: C_15  and  C_17 
REMARK    5  A    between atoms: C_17  and  N_18 
REMARK    6  A    between atoms: N_21  and  C_22 
ROOT
ATOM      1  C   UNL d   1      10.164   3.954 -17.134  0.00  0.00     0.066 A 
ATOM      2  C   UNL d   1       9.757   5.191 -17.700  0.00  0.00     0.018 A 
ATOM      3  C   UNL d   1       9.829   5.407 -19.080  0.00  0.00     0.002 A 
ATOM      4  C   UNL d   1      10.312   4.394 -19.927  0.00  0.00     0.001 A 
ATOM      5  C   UNL d   1      10.731   3.170 -19.374  0.00  0.00     0.012 A 
ATOM      6  C   UNL d   1      10.664   2.938 -17.997  0.00  0.00     0.084 A 
ATOM      7  C   UNL d   1      11.133   1.648 -17.515  0.00  0.00     0.102 C 
ATOM      8  N   UNL d   1      11.488   0.614 -17.132  0.00  0.00    -0.191 NA
ENDROOT
BRANCH   1   9
ATOM      9  N   UNL d   1      10.056   3.782 -15.732  0.00  0.00    -0.344 N 
ATOM     10  C   UNL d   1       9.575   2.550 -15.105  0.00  0.00     0.137 C 
ATOM     11  C   UNL d   1       8.482   2.863 -14.116  0.00  0.00     0.274 C 
ATOM     12  N   UNL d   1       8.880   3.878 -13.123  0.00  0.00     0.144 N 
ATOM     13  C   UNL d   1       9.283   5.090 -13.853  0.00  0.00     0.274 C 
ATOM     14  C   UNL d   1      10.419   4.850 -14.821  0.00  0.00     0.137 C 
BRANCH  12  15
ATOM     15  C   UNL d   1       7.776   4.138 -12.242  0.00  0.00     0.285 C 
BRANCH  15  16
ATOM     16  C   UNL d   1       7.972   5.363 -11.325  0.00  0.00     0.208 C 
ATOM     17  O   UNL d   1       6.658   5.751 -11.283  0.00  0.00    -0.219 OA
BRANCH  16  18
ATOM     18  C   UNL d   1       8.599   5.057  -9.915  0.00  0.00     0.148 C 
BRANCH  18  19
ATOM     19  N   UNL d   1       9.108   6.277  -9.274  0.00  0.00    -0.247 N 
ATOM     20  C   UNL d   1      10.076   7.045  -9.827  0.00  0.00     0.348 C 
ATOM     21  N   UNL d   1      10.306   8.081  -9.019  0.00  0.00    -0.209 NA
ATOM     22  O   UNL d   1      10.643   6.822 -10.830  0.00  0.00    -0.245 OA
ATOM     23  C   UNL d   1       9.519   8.006  -7.814  0.00  0.00     0.179 C 
ATOM     24  C   UNL d   1       8.607   9.200  -7.770  0.00  0.00     0.039 C 
ATOM     25  C   UNL d   1       8.786   6.680  -8.043  0.00  0.00     0.265 C 
ATOM     26  O   UNL d   1       8.135   6.066  -7.175  0.00  0.00    -0.269 OA
BRANCH  23  27
ATOM     27  C   UNL d   1      10.395   7.929  -6.577  0.00  0.00     0.006 A 
ATOM     28  C   UNL d   1      10.861   9.101  -5.926  0.00  0.00    -0.002 A 
ATOM     29  C   UNL d   1      11.606   8.977  -4.744  0.00  0.00     0.006 A 
ATOM     30  C   UNL d   1      11.866   7.701  -4.229  0.00  0.00     0.035 A 
ATOM     31  C   UNL d   1      11.493   6.551  -4.912  0.00  0.00     0.006 A 
ATOM     32 BR   UNL d   1      12.672   7.487  -2.568  0.00  0.00    -0.049 Br
ATOM     33  C   UNL d   1      10.766   6.661  -6.088  0.00  0.00    -0.002 A 
ENDBRANCH  23  27
ENDBRANCH  18  19
ENDBRANCH  16  18
ENDBRANCH  15  16
ENDBRANCH  12  15
ENDBRANCH   1   9
TORSDOF 6
