REMARK  4 active torsions:
REMARK  status: ('A' for Active; 'I' for Inactive)
REMARK    1  A    between atoms: C_8  and  C_9 
REMARK    2  A    between atoms: C_9  and  C_10 
REMARK    3  A    between atoms: C_10  and  N_11 
REMARK    4  A    between atoms: N_14  and  C_15 
ROOT
ATOM      1  N   UNL d   1       8.089   5.487 -11.682  0.00  0.00     0.141 N 
ATOM      2  C   UNL d   1       6.738   4.928 -11.567  0.00  0.00     0.274 C 
ATOM      3  C   UNL d   1       6.173   4.483 -12.924  0.00  0.00     0.137 C 
ATOM      4  N   UNL d   1       7.107   3.581 -13.574  0.00  0.00    -0.343 N 
ATOM      5  C   UNL d   1       8.485   4.045 -13.623  0.00  0.00     0.137 C 
ATOM      6  C   UNL d   1       8.976   4.466 -12.241  0.00  0.00     0.274 C 
ENDROOT
BRANCH   1   7
ATOM      7  C   UNL d   1       8.534   5.775 -10.329  0.00  0.00     0.255 C 
BRANCH   7   8
ATOM      8  C   UNL d   1       9.928   6.461 -10.324  0.00  0.00     0.068 C 
BRANCH   8   9
ATOM      9  C   UNL d   1      10.301   7.305  -9.114  0.00  0.00     0.050 A 
ATOM     10  C   UNL d   1      10.953   8.492  -9.189  0.00  0.00     0.061 A 
ATOM     11  C   UNL d   1      11.301   9.143 -10.475  0.00  0.00     0.052 C 
ATOM     12  N   UNL d   1      11.402   9.175  -8.070  0.00  0.00    -0.234 NA
ATOM     13  C   UNL d   1      11.182   8.692  -6.905  0.00  0.00     0.153 A 
ATOM     14  C   UNL d   1      11.575   9.460  -5.635  0.00  0.00     0.208 C 
ATOM     15  N   UNL d   1      10.585   7.421  -6.750  0.00  0.00    -0.283 N 
ATOM     16  C   UNL d   1      12.140   8.592  -4.505  0.00  0.00     0.043 C 
ATOM     17  O   UNL d   1      10.470  10.136  -5.090  0.00  0.00    -0.215 OA
ATOM     18  C   UNL d   1      11.559   7.157  -4.473  0.00  0.00     0.028 C 
ATOM     19  C   UNL d   1      10.337   6.984  -5.397  0.00  0.00     0.111 C 
ATOM     20  C   UNL d   1      10.088   6.712  -7.802  0.00  0.00     0.259 A 
ATOM     21  O   UNL d   1       9.533   5.618  -7.645  0.00  0.00    -0.267 OA
ENDBRANCH   8   9
ENDBRANCH   7   8
ENDBRANCH   1   7
BRANCH   4  22
ATOM     22  C   UNL d   1       6.729   2.313 -14.114  0.00  0.00     0.075 A 
ATOM     23  C   UNL d   1       7.329   1.783 -15.285  0.00  0.00     0.103 A 
ATOM     24  C   UNL d   1       6.873   0.508 -15.749  0.00  0.00     0.050 A 
ATOM     25  N   UNL d   1       8.327   2.356 -16.095  0.00  0.00    -0.235 NA
ATOM     26  C   UNL d   1       5.857  -0.198 -15.089  0.00  0.00     0.008 A 
ATOM     27  S   UNL d   1       7.735   0.050 -17.223  0.00  0.00    -0.064 SA
ATOM     28  C   UNL d   1       5.272   0.362 -13.943  0.00  0.00     0.002 A 
ATOM     29  C   UNL d   1       5.727   1.592 -13.440  0.00  0.00     0.018 A 
ATOM     30  C   UNL d   1       8.650   1.539 -17.085  0.00  0.00     0.135 A 
ENDBRANCH   4  22
TORSDOF 4
