REMARK  4 active torsions:
REMARK  status: ('A' for Active; 'I' for Inactive)
REMARK    1  A    between atoms: C_5  and  N_6 
REMARK    2  A    between atoms: N_9  and  C_10 
REMARK    3  A    between atoms: C_10  and  C_11 
REMARK    4  A    between atoms: C_13  and  C_14 
ROOT
ATOM      1  N   UNL d   1       9.028   4.179 -13.367  0.00  0.00    -0.344 N 
ATOM      2  C   UNL d   1       9.856   3.842 -12.243  0.00  0.00     0.137 C 
ATOM      3  C   UNL d   1       9.442   4.657 -11.021  0.00  0.00     0.274 C 
ATOM      4  N   UNL d   1       9.509   6.088 -11.331  0.00  0.00     0.141 N 
ATOM      5  C   UNL d   1       8.548   6.379 -12.404  0.00  0.00     0.274 C 
ATOM      6  C   UNL d   1       8.947   5.587 -13.671  0.00  0.00     0.137 C 
ENDROOT
BRANCH   4   7
ATOM      7  C   UNL d   1       9.132   6.842 -10.141  0.00  0.00     0.251 C 
BRANCH   7   8
ATOM      8  C   UNL d   1      10.139   6.766  -9.017  0.00  0.00     0.038 A 
ATOM      9  C   UNL d   1       9.690   6.998  -7.578  0.00  0.00     0.024 A 
ATOM     10  C   UNL d   1      10.108   5.623  -8.028  0.00  0.00     0.007 A 
BRANCH   9  11
ATOM     11  C   UNL d   1      10.555   7.766  -6.630  0.00  0.00    -0.022 A 
ATOM     12  C   UNL d   1      10.973   7.188  -5.412  0.00  0.00    -0.004 A 
ATOM     13  C   UNL d   1      11.814   7.901  -4.533  0.00  0.00    -0.000 A 
ATOM     14  C   UNL d   1      12.243   9.196  -4.883  0.00  0.00    -0.000 A 
ATOM     15  C   UNL d   1      11.817   9.784  -6.093  0.00  0.00    -0.000 A 
ATOM     16  C   UNL d   1      10.972   9.069  -6.962  0.00  0.00    -0.004 A 
ENDBRANCH   9  11
ENDBRANCH   7   8
ENDBRANCH   4   7
BRANCH   1  17
ATOM     17  C   UNL d   1       8.408   3.205 -14.137  0.00  0.00     0.067 A 
ATOM     18  C   UNL d   1       7.075   2.866 -13.838  0.00  0.00     0.019 A 
ATOM     19  C   UNL d   1       6.435   1.842 -14.556  0.00  0.00     0.013 A 
ATOM     20  C   UNL d   1       7.098   1.204 -15.618  0.00  0.00     0.059 A 
ATOM     21 CL   UNL d   1       6.264   0.016 -16.545  0.00  0.00    -0.082 Cl
ATOM     22  C   UNL d   1       8.425   1.547 -15.929  0.00  0.00     0.024 A 
ATOM     23  C   UNL d   1       9.092   2.541 -15.183  0.00  0.00     0.074 A 
ATOM     24 CL   UNL d   1      10.732   2.935 -15.572  0.00  0.00    -0.081 Cl
ENDBRANCH   1  17
TORSDOF 4
