REMARK  4 active torsions:
REMARK  status: ('A' for Active; 'I' for Inactive)
REMARK       I    between atoms: C_2  and  N_4 
REMARK    1  A    between atoms: N_4  and  C_5 
REMARK    2  A    between atoms: C_8  and  C_9 
REMARK    3  A    between atoms: N_11  and  S_12 
REMARK    4  A    between atoms: S_12  and  C_15 
ROOT
ATOM      1  C   UNL d   1       8.972   1.493 -16.477  0.00  0.00     0.040 A 
ATOM      2  C   UNL d   1      10.135   2.200 -16.610  0.00  0.00     0.093 A 
ATOM      3  N   UNL d   1      10.150   3.270 -15.729  0.00  0.00    -0.231 N 
ATOM      4  C   UNL d   1       8.982   3.271 -14.975  0.00  0.00     0.075 A 
ATOM      5  C   UNL d   1       8.491   4.132 -13.972  0.00  0.00     0.018 A 
ATOM      6  C   UNL d   1       7.240   3.884 -13.382  0.00  0.00     0.002 A 
ATOM      7  C   UNL d   1       6.471   2.785 -13.806  0.00  0.00     0.000 A 
ATOM      8  C   UNL d   1       6.958   1.931 -14.819  0.00  0.00     0.002 A 
ATOM      9  C   UNL d   1       8.219   2.150 -15.433  0.00  0.00     0.020 A 
ENDROOT
BRANCH   1  10
ATOM     10  C   UNL d   1       8.549   0.308 -17.228  0.00  0.00     0.121 A 
ATOM     11  C   UNL d   1       9.319  -0.598 -17.931  0.00  0.00     0.138 A 
ATOM     12  N   UNL d   1       8.442  -1.542 -18.438  0.00  0.00    -0.056 NA
ATOM     13  C   UNL d   1       7.215  -1.178 -18.064  0.00  0.00     0.753 A 
ATOM     14  N   UNL d   1       7.203  -0.062 -17.341  0.00  0.00    -0.058 NA
BRANCH  13  15
ATOM     15  N   UNL d   1       6.090  -1.960 -18.438  0.00  0.00    -0.023 NA
ATOM     16  C   UNL d   1       4.801  -1.747 -18.133  0.00  0.00     0.273 C 
ATOM     17  C   UNL d   1       3.807  -2.755 -18.702  0.00  0.00     0.101 C 
ATOM     18  O   UNL d   1       4.383  -0.811 -17.449  0.00  0.00    -0.270 OA
ENDBRANCH  13  15
ENDBRANCH   1  10
BRANCH   3  19
ATOM     19  S   UNL d   1      11.448   4.406 -15.673  0.00  0.00     0.271 S 
ATOM     20  O   UNL d   1      11.299   5.171 -14.425  0.00  0.00    -0.200 OA
ATOM     21  O   UNL d   1      12.662   3.620 -15.940  0.00  0.00    -0.200 OA
BRANCH  19  22
ATOM     22  C   UNL d   1      11.159   5.494 -17.063  0.00  0.00     0.104 A 
ATOM     23  C   UNL d   1       9.885   5.590 -17.659  0.00  0.00     0.013 A 
ATOM     24  C   UNL d   1       9.696   6.440 -18.767  0.00  0.00     0.001 A 
ATOM     25  C   UNL d   1      10.775   7.193 -19.271  0.00  0.00     0.000 A 
ATOM     26  C   UNL d   1      12.046   7.099 -18.669  0.00  0.00     0.001 A 
ATOM     27  C   UNL d   1      12.241   6.247 -17.566  0.00  0.00     0.013 A 
ENDBRANCH  19  22
ENDBRANCH   3  19
TORSDOF 4
