REMARK  8 active torsions:
REMARK  status: ('A' for Active; 'I' for Inactive)
REMARK    1  A    between atoms: C_3  and  S_4 
REMARK    2  A    between atoms: S_4  and  C_5 
REMARK    3  A    between atoms: C_5  and  C_6 
REMARK    4  A    between atoms: C_6  and  C_7 
REMARK    5  A    between atoms: C_7  and  N_8 
REMARK    6  A    between atoms: C_13  and  C_14 
REMARK    7  A    between atoms: C_17  and  C_18 
REMARK    8  A    between atoms: C_27  and  C_28 
ROOT
ATOM      1  N   UNL d   1       9.345   5.352 -10.546  0.00  0.00     0.137 N 
ATOM      2  C   UNL d   1       8.274   5.309  -9.564  0.00  0.00     0.250 C 
ATOM      3  C   UNL d   1       8.693   6.353  -8.521  0.00  0.00     0.038 C 
ATOM      4  C   UNL d   1       9.520   7.341  -9.297  0.00  0.00     0.037 A 
ATOM      5  C   UNL d   1       9.457   8.857  -9.058  0.00  0.00     0.007 A 
ATOM      6  C   UNL d   1      10.711   8.088  -8.694  0.00  0.00     0.024 A 
ATOM      7  C   UNL d   1       9.541   6.791 -10.698  0.00  0.00     0.251 C 
ENDROOT
BRANCH   1   8
ATOM      8  C   UNL d   1       8.933   4.716 -11.804  0.00  0.00     0.251 C 
BRANCH   8   9
ATOM      9  C   UNL d   1      10.090   4.629 -12.821  0.00  0.00     0.047 C 
BRANCH   9  10
ATOM     10  C   UNL d   1       9.660   4.128 -14.200  0.00  0.00     0.067 C 
BRANCH  10  11
ATOM     11  S   UNL d   1      10.159   2.406 -14.456  0.00  0.00    -0.075 SA
BRANCH  11  12
ATOM     12  C   UNL d   1       8.915   1.985 -15.621  0.00  0.00     0.193 A 
ATOM     13  N   UNL d   1       7.968   1.058 -15.376  0.00  0.00    -0.287 N 
ATOM     14  C   UNL d   1       7.812   0.258 -14.161  0.00  0.00     0.134 C 
ATOM     15  C   UNL d   1       7.247   1.068 -16.531  0.00  0.00     0.186 A 
ATOM     16  N   UNL d   1       7.724   1.970 -17.403  0.00  0.00    -0.127 NA
ATOM     17  N   UNL d   1       8.813   2.564 -16.815  0.00  0.00    -0.122 NA
BRANCH  15  18
ATOM     18  C   UNL d   1       6.062   0.240 -16.854  0.00  0.00     0.136 A 
ATOM     19  N   UNL d   1       5.722   0.157 -18.175  0.00  0.00    -0.238 NA
ATOM     20  C   UNL d   1       4.644  -0.601 -18.492  0.00  0.00     0.120 A 
ATOM     21  C   UNL d   1       3.902  -1.283 -17.508  0.00  0.00     0.120 A 
ATOM     22  N   UNL d   1       4.218  -1.201 -16.199  0.00  0.00    -0.239 NA
ATOM     23  C   UNL d   1       5.287  -0.440 -15.877  0.00  0.00     0.121 A 
ENDBRANCH  15  18
ENDBRANCH  11  12
ENDBRANCH  10  11
ENDBRANCH   9  10
ENDBRANCH   8   9
ENDBRANCH   1   8
BRANCH   6  24
ATOM     24  C   UNL d   1      11.071   7.896  -7.260  0.00  0.00    -0.022 A 
ATOM     25  C   UNL d   1      11.476   6.642  -6.777  0.00  0.00    -0.004 A 
ATOM     26  C   UNL d   1      11.793   6.468  -5.418  0.00  0.00     0.004 A 
ATOM     27  C   UNL d   1      11.694   7.532  -4.493  0.00  0.00     0.071 A 
ATOM     28  C   UNL d   1      11.284   8.790  -4.986  0.00  0.00     0.004 A 
ATOM     29  C   UNL d   1      10.992   8.978  -6.349  0.00  0.00    -0.004 A 
BRANCH  27  30
ATOM     30  C   UNL d   1      12.048   7.327  -3.018  0.00  0.00     0.419 C 
ATOM     31  F   UNL d   1      13.065   6.514  -2.839  0.00  0.00    -0.166 F 
ATOM     32  F   UNL d   1      12.329   8.495  -2.443  0.00  0.00    -0.166 F 
ATOM     33  F   UNL d   1      11.051   6.763  -2.341  0.00  0.00    -0.166 F 
ENDBRANCH  27  30
ENDBRANCH   6  24
TORSDOF 8
