REMARK  9 active torsions:
REMARK  status: ('A' for Active; 'I' for Inactive)
REMARK    1  A    between atoms: O_2  and  C_3 
REMARK    2  A    between atoms: C_9  and  C_10 
REMARK    3  A    between atoms: C_12  and  C_13 
REMARK    4  A    between atoms: C_13  and  N_14 
REMARK    5  A    between atoms: N_14  and  C_15 
REMARK    6  A    between atoms: C_15  and  C_16 
REMARK    7  A    between atoms: C_16  and  C_17 
REMARK    8  A    between atoms: C_17  and  O_18 
REMARK    9  A    between atoms: O_18  and  C_19 
ROOT
ATOM      1  C   UNL d   1       9.277   7.277 -11.078  0.00  0.00     0.293 C 
ENDROOT
BRANCH   1   2
ATOM      2  N   UNL d   1       9.700   5.999 -11.613  0.00  0.00     0.339 N 
BRANCH   2   3
ATOM      3  C   UNL d   1       8.862   5.665 -12.750  0.00  0.00     0.290 C 
BRANCH   3   4
ATOM      4  C   UNL d   1       8.129   4.381 -12.465  0.00  0.00     0.041 A 
ATOM      5  C   UNL d   1       6.911   4.015 -13.287  0.00  0.00     0.026 A 
ATOM      6  C   UNL d   1       6.754   4.396 -11.831  0.00  0.00     0.007 A 
BRANCH   5   7
ATOM      7  C   UNL d   1       6.697   2.602 -13.740  0.00  0.00     0.002 A 
ATOM      8  C   UNL d   1       7.652   1.969 -14.570  0.00  0.00     0.090 A 
ATOM      9  C   UNL d   1       7.461   0.612 -14.927  0.00  0.00     0.026 A 
ATOM     10  C   UNL d   1       6.327  -0.091 -14.479  0.00  0.00     0.032 A 
ATOM     11  C   UNL d   1       5.368   0.556 -13.681  0.00  0.00     0.140 A 
ATOM     12  F   UNL d   1       4.265  -0.112 -13.273  0.00  0.00    -0.204 F 
ATOM     13  C   UNL d   1       5.554   1.897 -13.308  0.00  0.00     0.027 A 
BRANCH   8  14
ATOM     14  O   UNL d   1       8.755   2.709 -14.950  0.00  0.00    -0.328 OA
ATOM     15  C   UNL d   1       9.731   2.092 -15.777  0.00  0.00     0.181 C 
ENDBRANCH   8  14
ENDBRANCH   5   7
ENDBRANCH   3   4
ENDBRANCH   2   3
ENDBRANCH   1   2
BRANCH   1  16
ATOM     16  C   UNL d   1      10.317   7.810 -10.078  0.00  0.00     0.071 C 
BRANCH  16  17
ATOM     17  C   UNL d   1       9.839   9.091  -9.342  0.00  0.00     0.151 C 
BRANCH  17  18
ATOM     18  O   UNL d   1      10.810   9.474  -8.373  0.00  0.00    -0.331 OA
BRANCH  18  19
ATOM     19  C   UNL d   1      10.842   8.781  -7.191  0.00  0.00     0.096 A 
ATOM     20  C   UNL d   1      11.732   9.219  -6.179  0.00  0.00     0.043 A 
ATOM     21  C   UNL d   1      11.817   8.498  -4.972  0.00  0.00     0.082 A 
ATOM     22  C   UNL d   1      11.075   7.309  -4.812  0.00  0.00    -0.004 A 
ATOM     23  N   UNL d   1      12.655   8.942  -3.926  0.00  0.00    -0.212 NA
ATOM     24  C   UNL d   1      10.199   6.885  -5.815  0.00  0.00    -0.001 A 
ATOM     25  C   UNL d   1      11.224   6.497  -3.552  0.00  0.00     0.038 C 
ATOM     26  C   UNL d   1      10.040   7.634  -6.981  0.00  0.00     0.024 A 
ATOM     27  C   UNL d   1      11.553   7.391  -2.367  0.00  0.00     0.095 C 
ATOM     28  C   UNL d   1      12.591   8.448  -2.682  0.00  0.00     0.256 C 
ATOM     29  O   UNL d   1      13.334   8.794  -1.771  0.00  0.00    -0.270 OA
ENDBRANCH  18  19
ENDBRANCH  17  18
ENDBRANCH  16  17
ENDBRANCH   1  16
TORSDOF 9
