REMARK  4 active torsions:
REMARK  status: ('A' for Active; 'I' for Inactive)
REMARK    1  A    between atoms: C_2  and  C_3 
REMARK    2  A    between atoms: C_3  and  C_4 
REMARK    3  A    between atoms: C_26  and  C_27 
REMARK    4  A    between atoms: C_27  and  C_29 
ROOT
ATOM      1  C   UNL d   1      10.327   7.034 -20.838  0.00  0.00     0.236 C 
ATOM      2  O   UNL d   1      10.450   5.743 -21.315  0.00  0.00    -0.331 OA
ATOM      3  C   UNL d   1      11.471   5.119 -20.564  0.00  0.00     0.149 C 
ATOM      4  C   UNL d   1      10.882   3.885 -19.854  0.00  0.00     0.033 C 
ATOM      5  C   UNL d   1      10.618   4.383 -18.432  0.00  0.00     0.005 C 
ATOM      6  C   UNL d   1      10.300   3.362 -17.315  0.00  0.00     0.004 C 
ATOM      7  C   UNL d   1       9.104   2.474 -17.723  0.00  0.00     0.004 C 
ATOM      8  C   UNL d   1       8.632   1.557 -16.590  0.00  0.00     0.022 C 
ATOM      9  C   UNL d   1       8.322   2.373 -15.347  0.00  0.00    -0.038 A 
ATOM     10  C   UNL d   1       7.085   2.367 -14.803  0.00  0.00     0.034 A 
ATOM     11  C   UNL d   1       6.737   3.212 -13.648  0.00  0.00     0.195 A 
ATOM     12  O   UNL d   1       5.613   3.192 -13.155  0.00  0.00    -0.287 OA
ATOM     13  C   UNL d   1       7.793   4.080 -13.112  0.00  0.00     0.038 A 
ATOM     14  C   UNL d   1       9.030   4.074 -13.644  0.00  0.00    -0.020 A 
ATOM     15  C   UNL d   1       9.495   3.224 -14.829  0.00  0.00     0.036 A 
ATOM     16  C   UNL d   1      10.587   2.265 -14.307  0.00  0.00     0.009 C 
ATOM     17  C   UNL d   1       9.995   4.146 -15.998  0.00  0.00     0.038 C 
ATOM     18  C   UNL d   1      11.089   5.214 -15.645  0.00  0.00     0.153 C 
ATOM     19  O   UNL d   1      12.250   4.672 -15.051  0.00  0.00    -0.223 OA
ATOM     20  C   UNL d   1      11.496   6.108 -16.850  0.00  0.00     0.036 C 
ATOM     21  C   UNL d   1      11.816   5.305 -18.136  0.00  0.00     0.034 C 
ATOM     22  C   UNL d   1      13.146   4.506 -17.958  0.00  0.00     0.003 C 
ATOM     23  C   UNL d   1      11.864   6.141 -19.459  0.00  0.00     0.173 C 
ATOM     24  O   UNL d   1      10.774   7.055 -19.524  0.00  0.00    -0.326 OA
ENDROOT
BRANCH  23  25
ATOM     25  C   UNL d   1      13.187   6.897 -19.745  0.00  0.00     0.210 C 
ATOM     26  O   UNL d   1      14.161   6.310 -20.224  0.00  0.00    -0.291 OA
BRANCH  25  27
ATOM     27  C   UNL d   1      13.234   8.402 -19.440  0.00  0.00     0.249 C 
ATOM     28  O   UNL d   1      14.506   8.957 -19.728  0.00  0.00    -0.212 OA
ENDBRANCH  25  27
ENDBRANCH  23  25
BRANCH   1  29
ATOM     29  C   UNL d   1       8.842   7.424 -20.873  0.00  0.00     0.061 C 
BRANCH  29  30
ATOM     30  C   UNL d   1       8.308   7.398 -22.317  0.00  0.00     0.005 C 
ATOM     31  C   UNL d   1       6.818   7.740 -22.403  0.00  0.00     0.000 C 
ENDBRANCH  29  30
ENDBRANCH   1  29
TORSDOF 4
