REMARK  3 active torsions:
REMARK  status: ('A' for Active; 'I' for Inactive)
REMARK    1  A    between atoms: O_2  and  C_3 
REMARK    2  A    between atoms: C_18  and  O_19 
REMARK    3  A    between atoms: C_21  and  O_22 
ROOT
ATOM      1  C   UNL d   1      11.849   7.262  -4.131  0.00  0.00     0.119 A 
ATOM      2  C   UNL d   1      11.616   6.662  -5.376  0.00  0.00     0.024 A 
ATOM      3  C   UNL d   1      11.188   7.452  -6.452  0.00  0.00     0.007 A 
ATOM      4  C   UNL d   1      10.992   8.817  -6.275  0.00  0.00    -0.020 A 
ATOM      5  C   UNL d   1      11.220   9.433  -5.035  0.00  0.00     0.025 A 
ATOM      6  C   UNL d   1      11.674   8.658  -3.964  0.00  0.00     0.153 A 
ATOM      7  O   UNL d   1      11.926   9.275  -2.780  0.00  0.00    -0.188 OA
ATOM      8  C   UNL d   1      10.638   9.620  -7.479  0.00  0.00     0.061 C 
ATOM      9  C   UNL d   1      10.144   8.881  -8.712  0.00  0.00     0.256 C 
ATOM     10  N   UNL d   1      11.095   7.813  -8.917  0.00  0.00     0.144 N 
ATOM     11  C   UNL d   1      10.953   7.220 -10.247  0.00  0.00     0.279 C 
ATOM     12  C   UNL d   1       9.803   6.259 -10.417  0.00  0.00     0.031 A 
ATOM     13  C   UNL d   1       9.290   5.647  -9.267  0.00  0.00    -0.020 A 
ATOM     14  C   UNL d   1       8.296   4.683  -9.415  0.00  0.00    -0.002 A 
ATOM     15  C   UNL d   1       7.766   4.398 -10.680  0.00  0.00     0.026 A 
ATOM     16  C   UNL d   1       8.230   4.989 -11.848  0.00  0.00     0.116 A 
ATOM     17  C   UNL d   1       9.308   5.885 -11.716  0.00  0.00     0.114 A 
ATOM     18  C   UNL d   1       9.643   6.088  -7.857  0.00  0.00     0.064 C 
ATOM     19  C   UNL d   1      10.965   6.846  -7.811  0.00  0.00     0.246 C 
ENDROOT
BRANCH   1  20
ATOM     20  O   UNL d   1      12.256   6.444  -3.115  0.00  0.00    -0.326 OA
ATOM     21  C   UNL d   1      11.374   6.372  -2.008  0.00  0.00     0.181 C 
ENDBRANCH   1  20
BRANCH  17  22
ATOM     22  O   UNL d   1       9.858   6.391 -12.865  0.00  0.00    -0.326 OA
ATOM     23  C   UNL d   1      10.404   5.408 -13.733  0.00  0.00     0.181 C 
ENDBRANCH  17  22
BRANCH  16  24
ATOM     24  O   UNL d   1       7.667   4.749 -13.091  0.00  0.00    -0.326 OA
ATOM     25  C   UNL d   1       6.511   3.916 -13.207  0.00  0.00     0.181 C 
ENDBRANCH  16  24
TORSDOF 3
