REMARK  6 active torsions:
REMARK  status: ('A' for Active; 'I' for Inactive)
REMARK    1  A    between atoms: N_2  and  C_3 
REMARK    2  A    between atoms: C_5  and  O_6 
REMARK    3  A    between atoms: C_8  and  C_9 
REMARK       I    between atoms: C_9  and  N_11 
REMARK    4  A    between atoms: N_11  and  C_12 
REMARK    5  A    between atoms: N_15  and  C_16 
REMARK    6  A    between atoms: C_16  and  C_17 
ROOT
ATOM      1  C   UNL d   1       8.964   6.451 -11.889  0.00  0.00     0.277 C 
ATOM      2  O   UNL d   1       9.480   7.407 -12.462  0.00  0.00    -0.266 OA
ATOM      3  N   UNL d   1       8.923   6.293 -10.567  0.00  0.00    -0.234 NA
ENDROOT
BRANCH   3   4
ATOM      4  C   UNL d   1      10.026   6.496  -9.630  0.00  0.00     0.140 C 
ATOM      5  C   UNL d   1      10.096   7.913  -9.032  0.00  0.00     0.242 C 
ATOM      6  N   UNL d   1      10.578   7.649  -7.674  0.00  0.00     0.141 N 
ATOM      7  C   UNL d   1      11.038   8.844  -9.841  0.00  0.00     0.037 C 
ATOM      8  C   UNL d   1       9.729   6.538  -7.249  0.00  0.00     0.253 C 
ATOM      9  C   UNL d   1       9.809   5.593  -8.423  0.00  0.00     0.062 C 
BRANCH   6  10
ATOM     10  C   UNL d   1      10.462   8.823  -6.807  0.00  0.00     0.277 C 
BRANCH  10  11
ATOM     11  C   UNL d   1      11.063   8.686  -5.408  0.00  0.00     0.011 A 
ATOM     12  C   UNL d   1      11.609   7.464  -4.936  0.00  0.00    -0.002 A 
ATOM     13  C   UNL d   1      12.032   7.334  -3.608  0.00  0.00    -0.000 A 
ATOM     14  C   UNL d   1      12.051   8.450  -2.742  0.00  0.00    -0.000 A 
ATOM     15  C   UNL d   1      11.597   9.698  -3.237  0.00  0.00    -0.000 A 
ATOM     16  C   UNL d   1      11.065   9.820  -4.551  0.00  0.00    -0.002 A 
ENDBRANCH  10  11
ENDBRANCH   6  10
ENDBRANCH   3   4
BRANCH   1  17
ATOM     17  C   UNL d   1       8.456   5.291 -12.659  0.00  0.00     0.081 A 
ATOM     18  C   UNL d   1       9.267   4.670 -13.645  0.00  0.00     0.100 A 
ATOM     19  C   UNL d   1       8.743   3.562 -14.357  0.00  0.00     0.044 A 
ATOM     20  C   UNL d   1       7.442   3.074 -14.093  0.00  0.00     0.089 A 
ATOM     21  C   UNL d   1       6.658   3.703 -13.106  0.00  0.00     0.075 A 
ATOM     22  C   UNL d   1       7.166   4.797 -12.381  0.00  0.00     0.020 A 
ATOM     23 CL   UNL d   1       5.066   3.141 -12.764  0.00  0.00    -0.081 Cl
BRANCH  18  24
ATOM     24  O   UNL d   1      10.547   5.155 -13.863  0.00  0.00    -0.328 OA
ATOM     25  C   UNL d   1      11.362   4.530 -14.849  0.00  0.00     0.181 C 
ENDBRANCH  18  24
BRANCH  20  26
ATOM     26  N   UNL d   1       6.900   1.987 -14.791  0.00  0.00    -0.268 NA
ATOM     27  C   UNL d   1       7.670   1.230 -15.762  0.00  0.00     0.152 C 
ENDBRANCH  20  26
ENDBRANCH   1  17
TORSDOF 6
