REMARK  7 active torsions:
REMARK  status: ('A' for Active; 'I' for Inactive)
REMARK       I    between atoms: N_2  and  C_4 
REMARK    1  A    between atoms: C_4  and  C_6 
REMARK    2  A    between atoms: C_6  and  C_7 
REMARK    3  A    between atoms: C_6  and  C_23 
REMARK    4  A    between atoms: C_6  and  C_29 
REMARK    5  A    between atoms: C_7  and  C_8 
REMARK    6  A    between atoms: C_8  and  N_9 
REMARK    7  A    between atoms: N_12  and  C_13 
ROOT
ATOM      1  C   UNL d   1       9.630   2.523 -17.791  0.00  0.00     0.111 C 
ENDROOT
BRANCH   1   2
ATOM      2  C   UNL d   1       8.357   1.550 -17.722  0.00  0.00     0.240 C 
ATOM      3  N   UNL d   1       8.307   0.546 -16.772  0.00  0.00    -0.316 N 
ATOM      4  C   UNL d   1       7.083  -0.287 -16.705  0.00  0.00     0.128 C 
ATOM      5  C   UNL d   1       9.370   0.130 -15.802  0.00  0.00     0.128 C 
ATOM      6  O   UNL d   1       7.414   1.745 -18.520  0.00  0.00    -0.272 OA
ENDBRANCH   1   2
BRANCH   1   7
ATOM      7  C   UNL d   1       9.968   3.026 -16.324  0.00  0.00     0.052 C 
BRANCH   7   8
ATOM      8  C   UNL d   1       8.766   3.171 -15.323  0.00  0.00     0.252 C 
BRANCH   8   9
ATOM      9  N   UNL d   1       8.804   4.351 -14.527  0.00  0.00     0.141 N 
ATOM     10  C   UNL d   1       7.634   4.316 -13.638  0.00  0.00     0.274 C 
ATOM     11  C   UNL d   1       7.595   5.573 -12.761  0.00  0.00     0.137 C 
ATOM     12  N   UNL d   1       8.854   5.686 -12.059  0.00  0.00    -0.344 N 
ATOM     13  C   UNL d   1      10.040   5.591 -12.877  0.00  0.00     0.137 C 
ATOM     14  C   UNL d   1      10.012   4.313 -13.702  0.00  0.00     0.274 C 
BRANCH  12  15
ATOM     15  C   UNL d   1       8.944   5.914 -10.689  0.00  0.00     0.068 A 
ATOM     16  C   UNL d   1       9.461   7.117 -10.148  0.00  0.00     0.084 A 
ATOM     17  C   UNL d   1       9.543   7.308  -8.764  0.00  0.00     0.070 A 
ATOM     18 CL   UNL d   1       9.881   8.410 -11.184  0.00  0.00    -0.080 Cl
ATOM     19  C   UNL d   1       9.072   6.315  -7.885  0.00  0.00     0.012 A 
ATOM     20 CL   UNL d   1      10.152   8.782  -8.086  0.00  0.00    -0.081 Cl
ATOM     21  C   UNL d   1       8.541   5.131  -8.435  0.00  0.00     0.002 A 
ATOM     22  C   UNL d   1       8.477   4.927  -9.805  0.00  0.00     0.018 A 
ENDBRANCH  12  15
ENDBRANCH   8   9
ENDBRANCH   7   8
ENDBRANCH   1   7
BRANCH   1  23
ATOM     23  C   UNL d   1      10.841   1.690 -18.370  0.00  0.00    -0.011 A 
ATOM     24  C   UNL d   1      12.064   2.337 -18.669  0.00  0.00    -0.004 A 
ATOM     25  C   UNL d   1      13.204   1.597 -19.090  0.00  0.00    -0.000 A 
ATOM     26  C   UNL d   1      13.157   0.191 -19.202  0.00  0.00    -0.000 A 
ATOM     27  C   UNL d   1      11.963  -0.474 -18.904  0.00  0.00    -0.000 A 
ATOM     28  C   UNL d   1      10.829   0.262 -18.554  0.00  0.00    -0.004 A 
ENDBRANCH   1  23
BRANCH   1  29
ATOM     29  C   UNL d   1       9.416   3.798 -18.707  0.00  0.00    -0.011 A 
ATOM     30  C   UNL d   1       8.854   3.667 -20.010  0.00  0.00    -0.004 A 
ATOM     31  C   UNL d   1       8.607   4.789 -20.822  0.00  0.00    -0.000 A 
ATOM     32  C   UNL d   1       8.976   6.081 -20.404  0.00  0.00    -0.000 A 
ATOM     33  C   UNL d   1       9.611   6.230 -19.155  0.00  0.00    -0.000 A 
ATOM     34  C   UNL d   1       9.837   5.118 -18.337  0.00  0.00    -0.004 A 
ENDBRANCH   1  29
TORSDOF 7
