REMARK  8 active torsions:
REMARK  status: ('A' for Active; 'I' for Inactive)
REMARK    1  A    between atoms: O_2  and  C_3 
REMARK    2  A    between atoms: C_6  and  S_7 
REMARK    3  A    between atoms: S_7  and  O_10 
REMARK    4  A    between atoms: O_10  and  C_11 
REMARK    5  A    between atoms: C_18  and  C_19 
REMARK    6  A    between atoms: C_22  and  C_23 
REMARK    7  A    between atoms: C_23  and  N_24 
REMARK    8  A    between atoms: C_30  and  C_31 
ROOT
ATOM      1  C   UNL d   1      11.924   3.634 -15.755  0.00  0.00     0.083 A 
ATOM      2  C   UNL d   1      11.501   2.436 -15.245  0.00  0.00     0.020 A 
ATOM      3  C   UNL d   1      10.796   2.701 -14.053  0.00  0.00     0.018 A 
ATOM      4  C   UNL d   1      10.678   4.053 -13.923  0.00  0.00     0.092 A 
ATOM      5  N   UNL d   1      11.397   4.607 -14.939  0.00  0.00    -0.248 NA
ENDROOT
BRANCH   1   6
ATOM      6  C   UNL d   1      12.726   4.008 -16.912  0.00  0.00     0.041 A 
ATOM      7  C   UNL d   1      13.039   3.070 -17.936  0.00  0.00     0.096 A 
ATOM      8  C   UNL d   1      13.871   3.473 -19.013  0.00  0.00     0.025 A 
ATOM      9  C   UNL d   1      14.364   4.786 -19.088  0.00  0.00     0.015 A 
ATOM     10  C   UNL d   1      14.031   5.708 -18.083  0.00  0.00     0.111 A 
ATOM     11  C   UNL d   1      13.225   5.324 -17.003  0.00  0.00     0.017 A 
BRANCH   7  12
ATOM     12  O   UNL d   1      12.522   1.798 -17.832  0.00  0.00    -0.328 OA
ATOM     13  C   UNL d   1      12.840   0.829 -18.813  0.00  0.00     0.181 C 
ENDBRANCH   7  12
BRANCH  10  14
ATOM     14  S   UNL d   1      14.648   7.375 -18.166  0.00  0.00     0.304 S 
ATOM     15  O   UNL d   1      13.911   8.220 -17.210  0.00  0.00    -0.193 OA
ATOM     16  O   UNL d   1      16.117   7.308 -18.176  0.00  0.00    -0.193 OA
BRANCH  14  17
ATOM     17  O   UNL d   1      14.111   7.764 -19.716  0.00  0.00    -0.227 OA
BRANCH  17  18
ATOM     18  C   UNL d   1      14.866   8.671 -20.401  0.00  0.00     0.114 A 
ATOM     19  C   UNL d   1      15.854   8.205 -21.291  0.00  0.00     0.026 A 
ATOM     20  C   UNL d   1      16.646   9.117 -22.010  0.00  0.00     0.002 A 
ATOM     21  C   UNL d   1      16.447  10.500 -21.845  0.00  0.00     0.000 A 
ATOM     22  C   UNL d   1      15.459  10.967 -20.955  0.00  0.00     0.002 A 
ATOM     23  C   UNL d   1      14.664  10.056 -20.234  0.00  0.00     0.026 A 
ENDBRANCH  17  18
ENDBRANCH  14  17
ENDBRANCH  10  14
ENDBRANCH   1   6
BRANCH   4  24
ATOM     24  C   UNL d   1       9.949   4.908 -12.982  0.00  0.00     0.296 C 
BRANCH  24  25
ATOM     25  N   UNL d   1       8.738   4.361 -12.379  0.00  0.00     0.145 N 
ATOM     26  C   UNL d   1       8.054   5.377 -11.540  0.00  0.00     0.242 C 
ATOM     27  C   UNL d   1       7.060   6.245 -12.357  0.00  0.00     0.038 C 
ATOM     28  C   UNL d   1       5.648   5.684 -12.467  0.00  0.00     0.002 C 
ATOM     29  C   UNL d   1       5.467   4.459 -13.359  0.00  0.00     0.002 C 
ATOM     30  C   UNL d   1       6.463   3.386 -12.978  0.00  0.00     0.035 C 
ATOM     31  C   UNL d   1       7.869   3.789 -13.422  0.00  0.00     0.251 C 
BRANCH  26  32
ATOM     32  C   UNL d   1       8.998   6.234 -10.689  0.00  0.00     0.009 A 
ATOM     33  C   UNL d   1       9.452   5.790  -9.433  0.00  0.00    -0.002 A 
ATOM     34  C   UNL d   1      10.355   6.573  -8.692  0.00  0.00    -0.000 A 
ATOM     35  C   UNL d   1      10.835   7.794  -9.216  0.00  0.00    -0.000 A 
ATOM     36  C   UNL d   1      10.362   8.253 -10.458  0.00  0.00    -0.000 A 
ATOM     37  C   UNL d   1       9.465   7.481 -11.198  0.00  0.00    -0.002 A 
ENDBRANCH  26  32
ENDBRANCH  24  25
ENDBRANCH   4  24
TORSDOF 8
