REMARK  4 active torsions:
REMARK  status: ('A' for Active; 'I' for Inactive)
REMARK    1  A    between atoms: C_4  and  N_5 
REMARK    2  A    between atoms: N_8  and  C_9 
REMARK    3  A    between atoms: C_9  and  C_10 
REMARK    4  A    between atoms: C_10  and  C_11 
ROOT
ATOM      1  N   UNL d   1       8.875   5.385 -11.996  0.00  0.00    -0.325 N 
ATOM      2  C   UNL d   1       7.970   4.815 -11.004  0.00  0.00     0.139 C 
ATOM      3  C   UNL d   1       8.657   4.686  -9.631  0.00  0.00     0.274 C 
ATOM      4  N   UNL d   1       9.032   6.008  -9.150  0.00  0.00     0.141 N 
ATOM      5  C   UNL d   1       9.961   6.598 -10.105  0.00  0.00     0.274 C 
ATOM      6  C   UNL d   1       9.295   6.693 -11.491  0.00  0.00     0.139 C 
ENDROOT
BRANCH   4   7
ATOM      7  C   UNL d   1       9.623   5.914  -7.835  0.00  0.00     0.253 C 
BRANCH   7   8
ATOM      8  C   UNL d   1       9.662   7.294  -7.160  0.00  0.00     0.064 C 
BRANCH   8   9
ATOM      9  C   UNL d   1      11.102   7.755  -6.855  0.00  0.00     0.131 A 
ATOM     10  C   UNL d   1      11.445   7.720  -5.379  0.00  0.00     0.005 A 
ATOM     11  C   UNL d   1      11.755   8.998  -4.955  0.00  0.00     0.055 A 
ATOM     12  C   UNL d   1      11.480   6.633  -4.495  0.00  0.00    -0.002 A 
ATOM     13  C   UNL d   1      11.645   9.913  -6.115  0.00  0.00     0.275 A 
ATOM     14  C   UNL d   1      12.118   9.268  -3.622  0.00  0.00     0.004 A 
ATOM     15  N   UNL d   1      11.262   9.176  -7.160  0.00  0.00    -0.232 NA
ATOM     16  O   UNL d   1      11.854  11.119  -6.122  0.00  0.00    -0.266 OA
ATOM     17  C   UNL d   1      12.182   8.183  -2.720  0.00  0.00     0.000 A 
ATOM     18  C   UNL d   1      11.861   6.871  -3.154  0.00  0.00    -0.000 A 
ENDBRANCH   8   9
ENDBRANCH   7   8
ENDBRANCH   4   7
BRANCH   1  19
ATOM     19  C   UNL d   1       9.233   4.815 -13.212  0.00  0.00     0.171 A 
ATOM     20  N   UNL d   1      10.294   5.173 -13.934  0.00  0.00    -0.227 NA
ATOM     21  C   UNL d   1      10.418   4.446 -15.122  0.00  0.00     0.064 A 
ATOM     22  C   UNL d   1      11.564   4.714 -16.037  0.00  0.00     0.052 C 
ATOM     23  C   UNL d   1       9.409   3.526 -15.304  0.00  0.00     0.024 A 
ATOM     24  S   UNL d   1       8.280   3.562 -13.980  0.00  0.00    -0.054 SA
ATOM     25  C   UNL d   1       9.212   2.591 -16.446  0.00  0.00     0.040 C 
ENDBRANCH   1  19
TORSDOF 4
