REMARK  9 active torsions:
REMARK  status: ('A' for Active; 'I' for Inactive)
REMARK    1  A    between atoms: O_2  and  C_3 
REMARK    2  A    between atoms: C_8  and  N_9 
REMARK    3  A    between atoms: N_12  and  C_13 
REMARK    4  A    between atoms: C_13  and  C_14 
REMARK    5  A    between atoms: C_14  and  C_15 
REMARK    6  A    between atoms: C_15  and  C_16 
REMARK    7  A    between atoms: C_16  and  N_17 
REMARK       I    between atoms: N_17  and  C_18 
REMARK    8  A    between atoms: C_18  and  C_20 
REMARK    9  A    between atoms: C_22  and  C_23 
ROOT
ATOM      1  C   UNL d   1       8.353   4.835 -13.113  0.00  0.00     0.251 C 
ENDROOT
BRANCH   1   2
ATOM      2  N   UNL d   1       9.100   3.652 -13.539  0.00  0.00     0.141 N 
ATOM      3  C   UNL d   1       8.162   2.674 -14.118  0.00  0.00     0.274 C 
ATOM      4  C   UNL d   1       8.914   1.383 -14.513  0.00  0.00     0.137 C 
ATOM      5  N   UNL d   1      10.008   1.692 -15.426  0.00  0.00    -0.343 N 
ATOM      6  C   UNL d   1      10.902   2.743 -14.970  0.00  0.00     0.137 C 
ATOM      7  C   UNL d   1      10.103   3.990 -14.563  0.00  0.00     0.274 C 
BRANCH   5   8
ATOM      8  C   UNL d   1      10.133   1.120 -16.707  0.00  0.00     0.079 A 
ATOM      9  C   UNL d   1       9.009   0.880 -17.537  0.00  0.00     0.110 A 
ATOM     10  C   UNL d   1       9.204   0.241 -18.792  0.00  0.00     0.026 A 
ATOM     11  C   UNL d   1      10.493  -0.106 -19.236  0.00  0.00     0.002 A 
ATOM     12  C   UNL d   1      11.606   0.175 -18.433  0.00  0.00     0.002 A 
ATOM     13  C   UNL d   1      11.426   0.787 -17.176  0.00  0.00     0.019 A 
BRANCH   9  14
ATOM     14  O   UNL d   1       7.770   1.308 -17.100  0.00  0.00    -0.327 OA
ATOM     15  C   UNL d   1       6.616   0.829 -17.769  0.00  0.00     0.181 C 
ENDBRANCH   9  14
ENDBRANCH   5   8
ENDBRANCH   1   2
BRANCH   1  16
ATOM     16  C   UNL d   1       9.209   5.796 -12.263  0.00  0.00     0.037 C 
BRANCH  16  17
ATOM     17  C   UNL d   1       8.549   7.170 -12.117  0.00  0.00     0.029 C 
BRANCH  17  18
ATOM     18  C   UNL d   1       9.439   8.176 -11.363  0.00  0.00     0.129 C 
BRANCH  18  19
ATOM     19  N   UNL d   1       9.473   7.857  -9.952  0.00  0.00    -0.238 NA
ATOM     20  C   UNL d   1      10.545   7.863  -9.159  0.00  0.00     0.251 C 
ATOM     21  O   UNL d   1      11.695   8.030  -9.563  0.00  0.00    -0.271 OA
BRANCH  20  22
ATOM     22  C   UNL d   1      10.223   7.708  -7.722  0.00  0.00     0.085 A 
ATOM     23  C   UNL d   1      11.306   7.165  -6.807  0.00  0.00     0.032 A 
ATOM     24  C   UNL d   1      10.131   6.297  -7.199  0.00  0.00     0.015 A 
BRANCH  23  25
ATOM     25  C   UNL d   1      11.461   7.682  -5.418  0.00  0.00    -0.022 A 
ATOM     26  C   UNL d   1      11.371   9.065  -5.153  0.00  0.00    -0.004 A 
ATOM     27  C   UNL d   1      11.539   9.541  -3.841  0.00  0.00    -0.000 A 
ATOM     28  C   UNL d   1      11.828   8.644  -2.794  0.00  0.00    -0.000 A 
ATOM     29  C   UNL d   1      11.907   7.261  -3.047  0.00  0.00    -0.000 A 
ATOM     30  C   UNL d   1      11.731   6.789  -4.359  0.00  0.00    -0.004 A 
ENDBRANCH  23  25
ENDBRANCH  20  22
ENDBRANCH  18  19
ENDBRANCH  17  18
ENDBRANCH  16  17
ENDBRANCH   1  16
TORSDOF 9
