REMARK  7 active torsions:
REMARK  status: ('A' for Active; 'I' for Inactive)
REMARK    1  A    between atoms: O_2  and  C_3 
REMARK    2  A    between atoms: C_8  and  N_9 
REMARK    3  A    between atoms: N_12  and  C_13 
REMARK    4  A    between atoms: C_13  and  C_14 
REMARK    5  A    between atoms: C_14  and  C_16 
REMARK    6  A    between atoms: C_16  and  N_17 
REMARK    7  A    between atoms: C_21  and  C_23 
ROOT
ATOM      1  C   UNL d   1       8.981   5.860 -11.311  0.00  0.00     0.208 C 
ATOM      2  O   UNL d   1       7.837   5.695 -10.533  0.00  0.00    -0.219 OA
ENDROOT
BRANCH   1   3
ATOM      3  C   UNL d   1       9.066   4.567 -12.139  0.00  0.00     0.285 C 
BRANCH   3   4
ATOM      4  N   UNL d   1      10.187   4.481 -13.069  0.00  0.00     0.144 N 
ATOM      5  C   UNL d   1      10.461   3.133 -13.476  0.00  0.00     0.274 C 
ATOM      6  C   UNL d   1      11.732   3.054 -14.339  0.00  0.00     0.137 C 
ATOM      7  N   UNL d   1      11.570   3.891 -15.522  0.00  0.00    -0.343 N 
ATOM      8  C   UNL d   1      11.136   5.260 -15.256  0.00  0.00     0.137 C 
ATOM      9  C   UNL d   1       9.943   5.229 -14.265  0.00  0.00     0.274 C 
BRANCH   7  10
ATOM     10  C   UNL d   1      11.653   3.364 -16.827  0.00  0.00     0.079 A 
ATOM     11  C   UNL d   1      11.114   2.088 -17.170  0.00  0.00     0.110 A 
ATOM     12  C   UNL d   1      11.289   1.607 -18.494  0.00  0.00     0.026 A 
ATOM     13  C   UNL d   1      11.951   2.383 -19.460  0.00  0.00     0.002 A 
ATOM     14  C   UNL d   1      12.450   3.648 -19.128  0.00  0.00     0.002 A 
ATOM     15  C   UNL d   1      12.299   4.140 -17.817  0.00  0.00     0.019 A 
BRANCH  11  16
ATOM     16  O   UNL d   1      10.413   1.395 -16.209  0.00  0.00    -0.327 OA
ATOM     17  C   UNL d   1       9.920   0.103 -16.503  0.00  0.00     0.181 C 
ENDBRANCH  11  16
ENDBRANCH   7  10
ENDBRANCH   3   4
ENDBRANCH   1   3
BRANCH   1  18
ATOM     18  C   UNL d   1      10.190   6.045 -10.403  0.00  0.00     0.148 C 
BRANCH  18  19
ATOM     19  N   UNL d   1      10.057   7.028  -9.368  0.00  0.00    -0.247 N 
ATOM     20  C   UNL d   1       9.728   6.730  -8.120  0.00  0.00     0.265 A 
ATOM     21  C   UNL d   1       9.730   8.033  -7.329  0.00  0.00     0.179 A 
ATOM     22  O   UNL d   1       9.457   5.607  -7.695  0.00  0.00    -0.269 OA
ATOM     23  N   UNL d   1       9.995   8.963  -8.411  0.00  0.00    -0.209 NA
ATOM     24  C   UNL d   1       8.337   8.263  -6.762  0.00  0.00     0.039 C 
ATOM     25  C   UNL d   1      10.206   8.333  -9.568  0.00  0.00     0.348 A 
ATOM     26  O   UNL d   1      10.504   8.846 -10.640  0.00  0.00    -0.245 OA
BRANCH  21  27
ATOM     27  C   UNL d   1      10.743   8.091  -6.211  0.00  0.00     0.006 A 
ATOM     28  C   UNL d   1      10.734   7.062  -5.249  0.00  0.00     0.000 A 
ATOM     29  C   UNL d   1      11.592   7.091  -4.158  0.00  0.00     0.029 A 
ATOM     30  C   UNL d   1      12.440   8.175  -3.969  0.00  0.00     0.140 A 
ATOM     31  C   UNL d   1      12.491   9.213  -4.930  0.00  0.00     0.029 A 
ATOM     32  F   UNL d   1      13.188   8.145  -2.842  0.00  0.00    -0.204 F 
ATOM     33  C   UNL d   1      11.623   9.179  -6.045  0.00  0.00     0.000 A 
ENDBRANCH  21  27
ENDBRANCH  18  19
ENDBRANCH   1  18
TORSDOF 7
