REMARK  8 active torsions:
REMARK  status: ('A' for Active; 'I' for Inactive)
REMARK    1  A    between atoms: C_3  and  S_4 
REMARK    2  A    between atoms: S_4  and  C_5 
REMARK    3  A    between atoms: C_5  and  C_6 
REMARK    4  A    between atoms: C_6  and  C_7 
REMARK    5  A    between atoms: C_7  and  N_8 
REMARK    6  A    between atoms: C_13  and  C_14 
REMARK    7  A    between atoms: C_17  and  C_18 
REMARK    8  A    between atoms: C_27  and  C_28 
ROOT
ATOM      1  N   UNL d   1       9.664   4.425 -14.542  0.00  0.00     0.137 N 
ATOM      2  C   UNL d   1       8.826   3.248 -14.354  0.00  0.00     0.250 C 
ATOM      3  C   UNL d   1       7.577   3.789 -13.604  0.00  0.00     0.038 C 
ATOM      4  C   UNL d   1       8.093   5.012 -12.897  0.00  0.00     0.037 A 
ATOM      5  C   UNL d   1       7.216   6.243 -12.777  0.00  0.00     0.007 A 
ATOM      6  C   UNL d   1       7.618   5.470 -11.539  0.00  0.00     0.024 A 
ATOM      7  C   UNL d   1       9.573   5.082 -13.252  0.00  0.00     0.251 C 
ENDROOT
BRANCH   1   8
ATOM      8  C   UNL d   1      11.045   4.087 -14.853  0.00  0.00     0.251 C 
BRANCH   8   9
ATOM      9  C   UNL d   1      11.171   3.417 -16.240  0.00  0.00     0.047 C 
BRANCH   9  10
ATOM     10  C   UNL d   1      11.895   2.058 -16.205  0.00  0.00     0.067 C 
BRANCH  10  11
ATOM     11  S   UNL d   1      11.131   0.834 -17.314  0.00  0.00    -0.075 SA
BRANCH  11  12
ATOM     12  C   UNL d   1       9.662   0.509 -16.396  0.00  0.00     0.193 A 
ATOM     13  N   UNL d   1       8.517   0.066 -16.971  0.00  0.00    -0.287 N 
ATOM     14  C   UNL d   1       8.288  -0.293 -18.372  0.00  0.00     0.134 C 
ATOM     15  C   UNL d   1       7.668   0.023 -15.907  0.00  0.00     0.186 A 
ATOM     16  N   UNL d   1       8.275   0.359 -14.765  0.00  0.00    -0.127 NA
ATOM     17  N   UNL d   1       9.555   0.718 -15.090  0.00  0.00    -0.122 NA
BRANCH  15  18
ATOM     18  C   UNL d   1       6.241  -0.358 -15.911  0.00  0.00     0.139 A 
ATOM     19  N   UNL d   1       5.665  -0.758 -17.077  0.00  0.00    -0.145 NA
ATOM     20  N   UNL d   1       4.401  -1.182 -17.109  0.00  0.00    -0.146 NA
ATOM     21  C   UNL d   1       3.668  -1.210 -15.975  0.00  0.00     0.122 A 
ATOM     22  C   UNL d   1       4.167  -0.777 -14.734  0.00  0.00     0.024 A 
ATOM     23  C   UNL d   1       5.499  -0.330 -14.705  0.00  0.00     0.026 A 
ENDBRANCH  15  18
ENDBRANCH  11  12
ENDBRANCH  10  11
ENDBRANCH   9  10
ENDBRANCH   8   9
ENDBRANCH   1   8
BRANCH   6  24
ATOM     24  C   UNL d   1       8.642   5.982 -10.559  0.00  0.00    -0.022 A 
ATOM     25  C   UNL d   1       8.686   5.464  -9.246  0.00  0.00    -0.004 A 
ATOM     26  C   UNL d   1       9.603   5.989  -8.316  0.00  0.00     0.004 A 
ATOM     27  C   UNL d   1      10.480   7.032  -8.687  0.00  0.00     0.071 A 
ATOM     28  C   UNL d   1      10.442   7.552  -9.997  0.00  0.00     0.004 A 
ATOM     29  C   UNL d   1       9.535   7.024 -10.917  0.00  0.00    -0.004 A 
BRANCH  27  30
ATOM     30  C   UNL d   1      11.485   7.598  -7.713  0.00  0.00     0.419 C 
ATOM     31  F   UNL d   1      12.582   7.995  -8.363  0.00  0.00    -0.166 F 
ATOM     32  F   UNL d   1      10.953   8.643  -7.081  0.00  0.00    -0.166 F 
ATOM     33  F   UNL d   1      11.827   6.664  -6.822  0.00  0.00    -0.166 F 
ENDBRANCH  27  30
ENDBRANCH   6  24
TORSDOF 8
