REMARK  4 active torsions:
REMARK  status: ('A' for Active; 'I' for Inactive)
REMARK       I    between atoms: N_10  and  C_11 
REMARK    1  A    between atoms: C_11  and  C_13 
REMARK    2  A    between atoms: C_13  and  C_14 
REMARK    3  A    between atoms: N_17  and  C_18 
REMARK    4  A    between atoms: C_18  and  C_19 
ROOT
ATOM      1  C   UNL d   1       8.772   4.663 -13.610  0.00  0.00     0.013 C 
ATOM      2  C   UNL d   1       8.754   6.139 -13.184  0.00  0.00     0.036 C 
ATOM      3  C   UNL d   1       8.347   6.337 -11.733  0.00  0.00     0.251 C 
ATOM      4  N   UNL d   1       9.302   5.629 -10.890  0.00  0.00     0.141 N 
ATOM      5  C   UNL d   1       9.206   4.215 -11.210  0.00  0.00     0.251 C 
ATOM      6  C   UNL d   1       9.668   3.911 -12.621  0.00  0.00     0.036 C 
ENDROOT
BRANCH   1   7
ATOM      7  C   UNL d   1       9.261   4.535 -15.062  0.00  0.00     0.088 C 
BRANCH   7   8
ATOM      8  C   UNL d   1       9.175   3.106 -15.645  0.00  0.00     0.237 C 
ATOM      9  N   UNL d   1       9.346   2.900 -16.983  0.00  0.00    -0.301 N 
ATOM     10  C   UNL d   1       9.465   1.518 -17.533  0.00  0.00     0.093 A 
ATOM     11  C   UNL d   1       9.514   3.868 -18.026  0.00  0.00     0.058 A 
ATOM     12  C   UNL d   1       8.270   0.564 -17.228  0.00  0.00     0.025 C 
ATOM     13  C   UNL d   1       9.661   1.695 -19.064  0.00  0.00     0.051 A 
ATOM     14  C   UNL d   1       9.690   3.197 -19.249  0.00  0.00    -0.004 A 
ATOM     15  C   UNL d   1       9.883   3.876 -20.467  0.00  0.00    -0.003 A 
ATOM     16  C   UNL d   1       9.878   5.291 -20.445  0.00  0.00    -0.000 A 
ATOM     17  C   UNL d   1       9.685   5.982 -19.226  0.00  0.00     0.002 A 
ATOM     18  C   UNL d   1       9.518   5.285 -18.014  0.00  0.00     0.017 A 
ATOM     19  O   UNL d   1       8.949   2.174 -14.878  0.00  0.00    -0.272 OA
ENDBRANCH   7   8
ENDBRANCH   1   7
BRANCH   4  20
ATOM     20  C   UNL d   1       8.933   5.801  -9.482  0.00  0.00     0.277 C 
BRANCH  20  21
ATOM     21  C   UNL d   1       9.765   6.872  -8.811  0.00  0.00     0.013 A 
ATOM     22  C   UNL d   1      10.269   7.962  -9.548  0.00  0.00     0.027 A 
ATOM     23  C   UNL d   1      11.024   8.942  -8.908  0.00  0.00     0.140 A 
ATOM     24  C   UNL d   1      11.303   8.865  -7.534  0.00  0.00     0.030 A 
ATOM     25  F   UNL d   1      11.449   9.993  -9.644  0.00  0.00    -0.204 F 
ATOM     26  C   UNL d   1      10.818   7.772  -6.796  0.00  0.00     0.002 A 
ATOM     27  C   UNL d   1      10.052   6.777  -7.433  0.00  0.00    -0.002 A 
ENDBRANCH  20  21
ENDBRANCH   4  20
TORSDOF 4
