REMARK  8 active torsions:
REMARK  status: ('A' for Active; 'I' for Inactive)
REMARK    1  A    between atoms: C_2  and  S_3 
REMARK    2  A    between atoms: S_3  and  C_6 
REMARK    3  A    between atoms: C_9  and  O_10 
REMARK    4  A    between atoms: C_12  and  C_13 
REMARK    5  A    between atoms: C_16  and  C_17 
REMARK    6  A    between atoms: C_17  and  N_18 
REMARK    7  A    between atoms: C_24  and  C_25 
REMARK    8  A    between atoms: C_28  and  O_29 
ROOT
ATOM      1  C   UNL d   1      11.315   1.549 -18.589  0.00  0.00     0.083 A 
ATOM      2  C   UNL d   1      10.661   0.369 -18.860  0.00  0.00     0.020 A 
ATOM      3  C   UNL d   1       9.425   0.352 -18.155  0.00  0.00     0.018 A 
ATOM      4  C   UNL d   1       9.302   1.557 -17.503  0.00  0.00     0.092 A 
ATOM      5  N   UNL d   1      10.472   2.241 -17.746  0.00  0.00    -0.248 NA
ENDROOT
BRANCH   4   6
ATOM      6  C   UNL d   1       8.261   2.172 -16.620  0.00  0.00     0.296 C 
BRANCH   6   7
ATOM      7  N   UNL d   1       7.455   1.171 -15.879  0.00  0.00     0.145 N 
ATOM      8  C   UNL d   1       6.715   1.807 -14.782  0.00  0.00     0.242 C 
ATOM      9  C   UNL d   1       6.039   0.846 -13.777  0.00  0.00     0.038 C 
ATOM     10  C   UNL d   1       4.996  -0.107 -14.391  0.00  0.00     0.002 C 
ATOM     11  C   UNL d   1       5.671  -1.254 -15.138  0.00  0.00     0.002 C 
ATOM     12  C   UNL d   1       6.120  -0.885 -16.562  0.00  0.00     0.035 C 
ATOM     13  C   UNL d   1       6.464   0.593 -16.806  0.00  0.00     0.251 C 
BRANCH   8  14
ATOM     14  C   UNL d   1       7.562   2.837 -14.022  0.00  0.00     0.009 A 
ATOM     15  C   UNL d   1       8.940   2.650 -13.819  0.00  0.00    -0.000 A 
ATOM     16  C   UNL d   1       9.710   3.629 -13.173  0.00  0.00     0.024 A 
ATOM     17  C   UNL d   1       9.090   4.781 -12.666  0.00  0.00     0.094 A 
ATOM     18  C   UNL d   1       7.702   4.947 -12.828  0.00  0.00     0.024 A 
ATOM     19  C   UNL d   1       6.936   3.963 -13.493  0.00  0.00    -0.000 A 
BRANCH  17  20
ATOM     20  O   UNL d   1       9.913   5.743 -12.046  0.00  0.00    -0.328 OA
ATOM     21  C   UNL d   1       9.190   6.834 -11.457  0.00  0.00     0.181 C 
ENDBRANCH  17  20
ENDBRANCH   8  14
ENDBRANCH   6   7
ENDBRANCH   4   6
BRANCH   1  22
ATOM     22  C   UNL d   1      12.596   2.127 -19.017  0.00  0.00     0.041 A 
ATOM     23  C   UNL d   1      13.399   1.482 -19.997  0.00  0.00     0.096 A 
ATOM     24  C   UNL d   1      14.627   2.071 -20.390  0.00  0.00     0.025 A 
ATOM     25  C   UNL d   1      15.058   3.283 -19.823  0.00  0.00     0.013 A 
ATOM     26  C   UNL d   1      14.276   3.907 -18.838  0.00  0.00     0.084 A 
ATOM     27  C   UNL d   1      13.048   3.347 -18.449  0.00  0.00     0.015 A 
BRANCH  23  28
ATOM     28  O   UNL d   1      12.943   0.298 -20.542  0.00  0.00    -0.328 OA
ATOM     29  C   UNL d   1      13.759  -0.399 -21.470  0.00  0.00     0.181 C 
ENDBRANCH  23  28
BRANCH  26  30
ATOM     30  S   UNL d   1      14.811   5.457 -18.118  0.00  0.00     0.190 S 
ATOM     31  O   UNL d   1      16.257   5.602 -18.375  0.00  0.00    -0.222 OA
ATOM     32  O   UNL d   1      14.311   5.532 -16.740  0.00  0.00    -0.222 OA
BRANCH  30  33
ATOM     33  C   UNL d   1      13.928   6.729 -19.114  0.00  0.00     0.127 C 
ATOM     34  C   UNL d   1      14.229   8.145 -18.608  0.00  0.00     0.018 C 
ENDBRANCH  30  33
ENDBRANCH  26  30
ENDBRANCH   1  22
TORSDOF 8
