REMARK  6 active torsions:
REMARK  status: ('A' for Active; 'I' for Inactive)
REMARK       I    between atoms: C_2  and  N_3 
REMARK    1  A    between atoms: C_2  and  C_30 
REMARK    2  A    between atoms: N_3  and  C_4 
REMARK    3  A    between atoms: C_9  and  C_10 
REMARK    4  A    between atoms: C_10  and  C_11 
REMARK    5  A    between atoms: C_11  and  N_12 
REMARK    6  A    between atoms: N_15  and  C_16 
ROOT
ATOM      1  C   UNL d   1      10.917   3.121 -15.716  0.00  0.00     0.129 C 
ATOM      2  C   UNL d   1      12.210   3.858 -15.522  0.00  0.00     0.034 C 
ATOM      3  C   UNL d   1      11.885   5.101 -14.652  0.00  0.00     0.028 C 
ATOM      4  C   UNL d   1      10.488   4.828 -14.148  0.00  0.00    -0.025 A 
ATOM      5  C   UNL d   1       9.761   5.551 -13.179  0.00  0.00    -0.009 A 
ATOM      6  C   UNL d   1       8.459   5.136 -12.823  0.00  0.00    -0.021 A 
ATOM      7  C   UNL d   1       7.892   4.034 -13.458  0.00  0.00    -0.004 A 
ATOM      8  C   UNL d   1       8.616   3.312 -14.436  0.00  0.00    -0.003 A 
ATOM      9  C   UNL d   1       9.932   3.734 -14.762  0.00  0.00    -0.004 A 
ENDROOT
BRANCH   6  10
ATOM     10  C   UNL d   1       7.672   5.912 -11.793  0.00  0.00     0.062 C 
BRANCH  10  11
ATOM     11  C   UNL d   1       7.884   5.393 -10.354  0.00  0.00     0.255 C 
BRANCH  11  12
ATOM     12  N   UNL d   1       9.178   5.742  -9.775  0.00  0.00     0.141 N 
ATOM     13  C   UNL d   1       9.061   5.605  -8.312  0.00  0.00     0.274 C 
ATOM     14  C   UNL d   1      10.388   5.985  -7.662  0.00  0.00     0.138 C 
ATOM     15  N   UNL d   1      10.817   7.322  -8.005  0.00  0.00    -0.329 N 
ATOM     16  C   UNL d   1      10.828   7.576  -9.439  0.00  0.00     0.138 C 
ATOM     17  C   UNL d   1       9.495   7.159 -10.019  0.00  0.00     0.274 C 
BRANCH  15  18
ATOM     18  C   UNL d   1      11.136   8.299  -7.041  0.00  0.00     0.148 A 
ATOM     19  C   UNL d   1      11.457   7.980  -5.660  0.00  0.00     0.042 A 
ATOM     20  C   UNL d   1      11.713   9.179  -4.952  0.00  0.00     0.050 A 
ATOM     21  C   UNL d   1      11.592   6.796  -4.904  0.00  0.00     0.004 A 
ATOM     22  S   UNL d   1      11.538  10.513  -6.062  0.00  0.00     0.015 SA
ATOM     23  C   UNL d   1      12.056   9.207  -3.588  0.00  0.00     0.008 A 
ATOM     24  N   UNL d   1      11.162   9.580  -7.386  0.00  0.00    -0.192 NA
ATOM     25  C   UNL d   1      12.137   7.995  -2.881  0.00  0.00     0.001 A 
ATOM     26  C   UNL d   1      11.891   6.795  -3.548  0.00  0.00     0.000 A 
ENDBRANCH  15  18
ENDBRANCH  11  12
ENDBRANCH  10  11
ENDBRANCH   6  10
BRANCH   1  27
ATOM     27  N   UNL d   1      11.002   1.678 -15.573  0.00  0.00    -0.232 NA
ATOM     28  C   UNL d   1      10.318   0.744 -16.293  0.00  0.00     0.277 C 
ATOM     29  O   UNL d   1      10.274  -0.430 -15.929  0.00  0.00    -0.266 OA
BRANCH  28  30
ATOM     30  C   UNL d   1       9.703   1.126 -17.604  0.00  0.00     0.077 A 
ATOM     31  C   UNL d   1       9.024   2.352 -17.811  0.00  0.00     0.104 A 
ATOM     32  N   UNL d   1       8.579   2.800 -18.991  0.00  0.00    -0.242 NA
ATOM     33  C   UNL d   1       8.668   1.976 -20.032  0.00  0.00     0.099 A 
ATOM     34  C   UNL d   1       9.207   0.682 -19.933  0.00  0.00     0.021 A 
ATOM     35  C   UNL d   1       9.762   0.248 -18.719  0.00  0.00     0.008 A 
ENDBRANCH  28  30
ENDBRANCH   1  27
TORSDOF 6
