REMARK  9 active torsions:
REMARK  status: ('A' for Active; 'I' for Inactive)
REMARK    1  A    between atoms: O_2  and  C_3 
REMARK    2  A    between atoms: C_8  and  N_9 
REMARK    3  A    between atoms: N_12  and  C_13 
REMARK    4  A    between atoms: C_13  and  C_14 
REMARK    5  A    between atoms: C_14  and  C_15 
REMARK    6  A    between atoms: C_15  and  C_16 
REMARK    7  A    between atoms: C_16  and  N_17 
REMARK       I    between atoms: N_17  and  C_18 
REMARK    8  A    between atoms: C_18  and  C_20 
REMARK    9  A    between atoms: C_21  and  C_22 
ROOT
ATOM      1  C   UNL d   1       6.350  -0.979 -15.133  0.00  0.00     0.251 C 
ENDROOT
BRANCH   1   2
ATOM      2  N   UNL d   1       6.160   0.429 -14.888  0.00  0.00     0.141 N 
ATOM      3  C   UNL d   1       7.339   1.129 -15.418  0.00  0.00     0.274 C 
ATOM      4  C   UNL d   1       7.142   2.623 -15.238  0.00  0.00     0.137 C 
ATOM      5  N   UNL d   1       6.905   2.958 -13.842  0.00  0.00    -0.343 N 
ATOM      6  C   UNL d   1       5.877   2.173 -13.167  0.00  0.00     0.137 C 
ATOM      7  C   UNL d   1       6.100   0.668 -13.442  0.00  0.00     0.274 C 
BRANCH   5   8
ATOM      8  C   UNL d   1       7.698   3.897 -13.171  0.00  0.00     0.079 A 
ATOM      9  C   UNL d   1       9.104   3.977 -13.390  0.00  0.00     0.110 A 
ATOM     10  C   UNL d   1       9.855   4.945 -12.700  0.00  0.00     0.026 A 
ATOM     11  C   UNL d   1       9.251   5.812 -11.769  0.00  0.00     0.002 A 
ATOM     12  C   UNL d   1       7.869   5.710 -11.529  0.00  0.00     0.002 A 
ATOM     13  C   UNL d   1       7.099   4.763 -12.222  0.00  0.00     0.019 A 
BRANCH   9  14
ATOM     14  O   UNL d   1       9.689   3.054 -14.237  0.00  0.00    -0.327 OA
ATOM     15  C   UNL d   1      11.059   3.189 -14.566  0.00  0.00     0.181 C 
ENDBRANCH   9  14
ENDBRANCH   5   8
ENDBRANCH   1   2
BRANCH   1  16
ATOM     16  C   UNL d   1       5.068  -1.795 -15.119  0.00  0.00     0.037 C 
BRANCH  16  17
ATOM     17  C   UNL d   1       5.012  -2.822 -16.274  0.00  0.00     0.029 C 
BRANCH  17  18
ATOM     18  C   UNL d   1       4.103  -2.298 -17.430  0.00  0.00     0.129 C 
BRANCH  18  19
ATOM     19  N   UNL d   1       4.117  -3.171 -18.603  0.00  0.00    -0.234 NA
ATOM     20  C   UNL d   1       5.065  -3.273 -19.550  0.00  0.00     0.275 C 
ATOM     21  O   UNL d   1       4.906  -4.044 -20.495  0.00  0.00    -0.266 OA
BRANCH  20  22
ATOM     22  C   UNL d   1       6.251  -2.455 -19.304  0.00  0.00     0.062 C 
ATOM     23  C   UNL d   1       7.271  -2.350 -20.176  0.00  0.00     0.005 C 
BRANCH  23  24
ATOM     24  C   UNL d   1       8.487  -1.590 -19.811  0.00  0.00     0.000 A 
ATOM     25  C   UNL d   1       8.834  -1.247 -18.474  0.00  0.00     0.001 A 
ATOM     26  C   UNL d   1       9.986  -0.496 -18.173  0.00  0.00     0.007 A 
ATOM     27  C   UNL d   1      10.825  -0.077 -19.219  0.00  0.00     0.035 A 
ATOM     28  C   UNL d   1      10.496  -0.404 -20.552  0.00  0.00     0.007 A 
ATOM     29 BR   UNL d   1      12.407   0.907 -18.838  0.00  0.00    -0.049 Br
ATOM     30  C   UNL d   1       9.331  -1.149 -20.843  0.00  0.00     0.001 A 
ENDBRANCH  23  24
ENDBRANCH  20  22
ENDBRANCH  18  19
ENDBRANCH  17  18
ENDBRANCH  16  17
ENDBRANCH   1  16
TORSDOF 9
