REMARK  3 active torsions:
REMARK  status: ('A' for Active; 'I' for Inactive)
REMARK    1  A    between atoms: C_5  and  N_6 
REMARK    2  A    between atoms: N_9  and  C_10 
REMARK    3  A    between atoms: C_10  and  C_11 
ROOT
ATOM      1  N   UNL d   1      10.566   6.836  -8.740  0.00  0.00    -0.344 N 
ATOM      2  C   UNL d   1      10.976   7.427  -9.999  0.00  0.00     0.137 C 
ATOM      3  C   UNL d   1       9.776   7.502 -10.952  0.00  0.00     0.275 C 
ATOM      4  N   UNL d   1       9.187   6.167 -11.151  0.00  0.00     0.145 N 
ATOM      5  C   UNL d   1       8.698   5.681  -9.852  0.00  0.00     0.275 C 
ATOM      6  C   UNL d   1       9.855   5.563  -8.842  0.00  0.00     0.137 C 
ENDROOT
BRANCH   4   7
ATOM      7  C   UNL d   1       8.071   6.284 -12.084  0.00  0.00     0.279 C 
BRANCH   7   8
ATOM      8  C   UNL d   1       7.370   5.054 -12.565  0.00  0.00     0.033 A 
ATOM      9  C   UNL d   1       7.868   4.079 -13.494  0.00  0.00     0.035 A 
ATOM     10  C   UNL d   1       6.867   3.084 -13.666  0.00  0.00     0.162 A 
ATOM     11  C   UNL d   1       9.052   3.888 -14.235  0.00  0.00     0.004 A 
ATOM     12  N   UNL d   1       5.819   3.454 -12.857  0.00  0.00    -0.226 NA
ATOM     13  N   UNL d   1       6.934   1.972 -14.451  0.00  0.00    -0.225 NA
ATOM     14  C   UNL d   1       6.119   4.633 -12.192  0.00  0.00     0.098 A 
ATOM     15  C   UNL d   1       8.095   1.838 -15.127  0.00  0.00     0.101 A 
ATOM     16  C   UNL d   1       9.167   2.755 -15.066  0.00  0.00     0.021 A 
ENDBRANCH   7   8
ENDBRANCH   4   7
BRANCH   1  17
ATOM     17  C   UNL d   1      10.811   7.483  -7.514  0.00  0.00     0.056 A 
ATOM     18  C   UNL d   1      11.066   6.719  -6.358  0.00  0.00     0.017 A 
ATOM     19  C   UNL d   1      11.309   7.332  -5.118  0.00  0.00     0.007 A 
ATOM     20  C   UNL d   1      11.325   8.733  -5.025  0.00  0.00     0.030 A 
ATOM     21  I   UNL d   1      11.717   9.633  -3.190  0.00  0.00    -0.043 I 
ATOM     22  C   UNL d   1      11.072   9.513  -6.167  0.00  0.00     0.007 A 
ATOM     23  C   UNL d   1      10.810   8.896  -7.404  0.00  0.00     0.017 A 
ENDBRANCH   1  17
TORSDOF 3
