REMARK  7 active torsions:
REMARK  status: ('A' for Active; 'I' for Inactive)
REMARK    1  A    between atoms: C_4  and  C_5 
REMARK       I    between atoms: C_5  and  N_7 
REMARK    2  A    between atoms: N_7  and  C_8 
REMARK    3  A    between atoms: C_8  and  C_9 
REMARK    4  A    between atoms: C_9  and  C_10 
REMARK    5  A    between atoms: C_10  and  N_11 
REMARK    6  A    between atoms: N_14  and  C_15 
REMARK    7  A    between atoms: N_27  and  C_28 
ROOT
ATOM      1  C   UNL d   1      10.079   4.645 -13.377  0.00  0.00     0.131 C 
ENDROOT
BRANCH   1   2
ATOM      2  N   UNL d   1      10.885   5.165 -14.486  0.00  0.00    -0.233 NA
ATOM      3  C   UNL d   1      11.858   4.526 -15.151  0.00  0.00     0.294 C 
ATOM      4  O   UNL d   1      12.149   3.347 -14.984  0.00  0.00    -0.264 OA
BRANCH   3   5
ATOM      5  C   UNL d   1      12.559   5.359 -16.160  0.00  0.00     0.152 A 
ATOM      6  N   UNL d   1      12.690   6.746 -16.067  0.00  0.00    -0.226 NA
ATOM      7  C   UNL d   1      13.431   7.101 -17.108  0.00  0.00     0.125 A 
ATOM      8  C   UNL d   1      13.799   8.517 -17.407  0.00  0.00     0.072 C 
ATOM      9  N   UNL d   1      13.786   6.034 -17.852  0.00  0.00    -0.297 N 
ATOM     10  C   UNL d   1      13.240   4.898 -17.268  0.00  0.00     0.065 A 
ATOM     11  C   UNL d   1      13.414   3.506 -17.806  0.00  0.00     0.052 C 
BRANCH   9  12
ATOM     12  C   UNL d   1      14.565   6.181 -19.016  0.00  0.00     0.065 A 
ATOM     13  C   UNL d   1      15.886   6.666 -18.930  0.00  0.00     0.018 A 
ATOM     14  C   UNL d   1      16.649   6.838 -20.099  0.00  0.00     0.002 A 
ATOM     15  C   UNL d   1      16.107   6.481 -21.349  0.00  0.00     0.000 A 
ATOM     16  C   UNL d   1      14.801   5.959 -21.432  0.00  0.00     0.002 A 
ATOM     17  C   UNL d   1      14.029   5.805 -20.264  0.00  0.00     0.018 A 
ENDBRANCH   9  12
ENDBRANCH   3   5
ENDBRANCH   1   2
BRANCH   1  18
ATOM     18  C   UNL d   1       9.512   3.231 -13.588  0.00  0.00     0.062 C 
BRANCH  18  19
ATOM     19  C   UNL d   1       8.550   3.185 -14.768  0.00  0.00     0.253 C 
BRANCH  19  20
ATOM     20  N   UNL d   1       8.156   1.806 -15.041  0.00  0.00     0.141 N 
ATOM     21  C   UNL d   1       6.697   1.708 -15.066  0.00  0.00     0.274 C 
ATOM     22  C   UNL d   1       6.231   0.268 -15.361  0.00  0.00     0.137 C 
ATOM     23  N   UNL d   1       6.826  -0.168 -16.614  0.00  0.00    -0.344 N 
ATOM     24  C   UNL d   1       8.276  -0.035 -16.690  0.00  0.00     0.137 C 
ATOM     25  C   UNL d   1       8.684   1.413 -16.351  0.00  0.00     0.274 C 
BRANCH  23  26
ATOM     26  C   UNL d   1       6.055  -0.688 -17.669  0.00  0.00     0.068 A 
ATOM     27  C   UNL d   1       6.129  -0.161 -18.988  0.00  0.00     0.084 A 
ATOM     28  C   UNL d   1       5.356  -0.709 -20.026  0.00  0.00     0.070 A 
ATOM     29 CL   UNL d   1       7.128   1.195 -19.377  0.00  0.00    -0.080 Cl
ATOM     30  C   UNL d   1       4.501  -1.796 -19.776  0.00  0.00     0.012 A 
ATOM     31 CL   UNL d   1       5.466  -0.042 -21.619  0.00  0.00    -0.081 Cl
ATOM     32  C   UNL d   1       4.416  -2.330 -18.476  0.00  0.00     0.002 A 
ATOM     33  C   UNL d   1       5.183  -1.778 -17.433  0.00  0.00     0.018 A 
ENDBRANCH  23  26
ENDBRANCH  19  20
ENDBRANCH  18  19
ENDBRANCH   1  18
TORSDOF 7
