REMARK  1 active torsions:
REMARK  status: ('A' for Active; 'I' for Inactive)
REMARK    1  A    between atoms: C_2  and  C_4 
ROOT
ATOM      1  C   UNL d   1      10.828   8.209  -5.719  0.00  0.00     0.085 A 
ATOM      2  C   UNL d   1      11.121   6.925  -5.210  0.00  0.00     0.007 A 
ATOM      3  C   UNL d   1      11.833   6.784  -3.998  0.00  0.00     0.000 A 
ATOM      4  C   UNL d   1      12.259   7.919  -3.291  0.00  0.00     0.002 A 
ATOM      5  C   UNL d   1      11.982   9.198  -3.794  0.00  0.00     0.028 A 
ATOM      6  C   UNL d   1      11.284   9.352  -5.009  0.00  0.00     0.136 A 
ATOM      7  O   UNL d   1      11.057  10.617  -5.468  0.00  0.00    -0.190 OA
ENDROOT
BRANCH   1   8
ATOM      8  C   UNL d   1      10.098   8.329  -7.030  0.00  0.00     0.299 C 
ATOM      9  N   UNL d   1       9.068   7.502  -7.224  0.00  0.00    -0.102 N 
ATOM     10  O   UNL d   1      10.420   9.189  -7.846  0.00  0.00    -0.264 OA
ENDBRANCH   1   8
TORSDOF 1
