REMARK  7 active torsions:
REMARK  status: ('A' for Active; 'I' for Inactive)
REMARK    1  A    between atoms: C_8  and  O_9 
REMARK    2  A    between atoms: O_9  and  C_10 
REMARK    3  A    between atoms: C_10  and  C_11 
REMARK    4  A    between atoms: C_11  and  C_12 
REMARK    5  A    between atoms: C_12  and  C_13 
REMARK    6  A    between atoms: C_13  and  N_14 
REMARK    7  A    between atoms: N_17  and  C_18 
ROOT
ATOM      1  N   UNL d   1       8.088   5.108 -11.985  0.00  0.00     0.141 N 
ATOM      2  C   UNL d   1       9.061   4.124 -12.464  0.00  0.00     0.274 C 
ATOM      3  C   UNL d   1       8.692   3.695 -13.881  0.00  0.00     0.137 C 
ATOM      4  N   UNL d   1       7.331   3.199 -13.958  0.00  0.00    -0.344 N 
ATOM      5  C   UNL d   1       6.320   4.059 -13.363  0.00  0.00     0.137 C 
ATOM      6  C   UNL d   1       6.747   4.517 -11.949  0.00  0.00     0.274 C 
ENDROOT
BRANCH   1   7
ATOM      7  C   UNL d   1       8.454   5.547 -10.644  0.00  0.00     0.251 C 
BRANCH   7   8
ATOM      8  C   UNL d   1       9.615   6.559 -10.679  0.00  0.00     0.038 C 
BRANCH   8   9
ATOM      9  C   UNL d   1       9.821   7.201  -9.307  0.00  0.00     0.035 C 
BRANCH   9  10
ATOM     10  C   UNL d   1      11.065   8.119  -9.258  0.00  0.00     0.149 C 
BRANCH  10  11
ATOM     11  O   UNL d   1      11.086   8.899  -8.066  0.00  0.00    -0.330 OA
BRANCH  11  12
ATOM     12  C   UNL d   1      11.340   8.281  -6.863  0.00  0.00     0.105 A 
ATOM     13  C   UNL d   1      11.537   6.885  -6.752  0.00  0.00     0.025 A 
ATOM     14  C   UNL d   1      11.846   6.326  -5.506  0.00  0.00    -0.000 A 
ATOM     15  C   UNL d   1      11.901   7.107  -4.354  0.00  0.00     0.008 A 
ATOM     16  C   UNL d   1      12.242   6.726  -2.926  0.00  0.00     0.155 A 
ATOM     17  C   UNL d   1      11.719   8.464  -4.453  0.00  0.00     0.068 A 
ATOM     18  N   UNL d   1      12.235   8.041  -2.273  0.00  0.00    -0.229 NA
ATOM     19  C   UNL d   1      11.948   9.063  -3.109  0.00  0.00     0.276 A 
ATOM     20  O   UNL d   1      11.840  10.239  -2.819  0.00  0.00    -0.266 OA
ATOM     21  C   UNL d   1      11.442   9.084  -5.698  0.00  0.00     0.084 A 
ATOM     22 CL   UNL d   1      11.274  10.786  -5.843  0.00  0.00    -0.080 Cl
ENDBRANCH  11  12
ENDBRANCH  10  11
ENDBRANCH   9  10
ENDBRANCH   8   9
ENDBRANCH   7   8
ENDBRANCH   1   7
BRANCH   4  23
ATOM     23  C   UNL d   1       6.992   1.950 -14.525  0.00  0.00     0.058 A 
ATOM     24  C   UNL d   1       7.511   1.491 -15.769  0.00  0.00     0.043 A 
ATOM     25  C   UNL d   1       7.096   0.194 -16.233  0.00  0.00     0.004 A 
ATOM     26  C   UNL d   1       8.420   2.222 -16.606  0.00  0.00     0.141 A 
ATOM     27  C   UNL d   1       6.200  -0.581 -15.466  0.00  0.00     0.000 A 
ATOM     28  C   UNL d   1       7.580  -0.350 -17.450  0.00  0.00     0.000 A 
ATOM     29  C   UNL d   1       5.702  -0.119 -14.247  0.00  0.00     0.002 A 
ATOM     30  C   UNL d   1       6.100   1.150 -13.782  0.00  0.00     0.017 A 
ATOM     31  C   UNL d   1       8.473   0.388 -18.257  0.00  0.00     0.002 A 
ATOM     32  C   UNL d   1       8.865   1.673 -17.831  0.00  0.00     0.030 A 
ATOM     33  F   UNL d   1       8.920   3.436 -16.272  0.00  0.00    -0.204 F 
ENDBRANCH   4  23
TORSDOF 7
