REMARK  4 active torsions:
REMARK  status: ('A' for Active; 'I' for Inactive)
REMARK       I    between atoms: N_3  and  C_4 
REMARK    1  A    between atoms: C_4  and  C_6 
REMARK    2  A    between atoms: C_6  and  N_7 
REMARK    3  A    between atoms: N_10  and  C_11 
REMARK    4  A    between atoms: C_11  and  C_12 
ROOT
ATOM      1  C   UNL d   1       9.387   4.822 -14.966  0.00  0.00     0.337 C 
ENDROOT
BRANCH   1   2
ATOM      2  C   UNL d   1       9.314   3.433 -15.630  0.00  0.00     0.271 C 
ATOM      3  N   UNL d   1      10.114   3.151 -16.686  0.00  0.00    -0.299 N 
ATOM      4  C   UNL d   1      11.014   4.136 -17.368  0.00  0.00     0.092 C 
ATOM      5  C   UNL d   1      10.297   1.861 -17.259  0.00  0.00     0.058 A 
ATOM      6  C   UNL d   1      10.167   5.204 -18.117  0.00  0.00     0.025 C 
ATOM      7  C   UNL d   1      11.980   3.270 -18.258  0.00  0.00     0.039 C 
ATOM      8  C   UNL d   1      11.369   1.895 -18.137  0.00  0.00    -0.005 A 
ATOM      9  C   UNL d   1      12.090   3.726 -19.729  0.00  0.00     0.006 C 
ATOM     10  C   UNL d   1      13.396   3.268 -17.645  0.00  0.00     0.006 C 
ATOM     11  C   UNL d   1      11.800   0.750 -18.820  0.00  0.00    -0.003 A 
ATOM     12  C   UNL d   1      11.093  -0.458 -18.622  0.00  0.00    -0.000 A 
ATOM     13  C   UNL d   1       9.973  -0.497 -17.759  0.00  0.00     0.002 A 
ATOM     14  C   UNL d   1       9.567   0.658 -17.061  0.00  0.00     0.017 A 
ATOM     15  O   UNL d   1       8.463   2.637 -15.208  0.00  0.00    -0.270 OA
ENDBRANCH   1   2
BRANCH   1  16
ATOM     16  N   UNL d   1       9.007   4.855 -13.558  0.00  0.00     0.151 N 
ATOM     17  C   UNL d   1       9.888   4.053 -12.717  0.00  0.00     0.286 C 
ATOM     18  C   UNL d   1       9.418   4.157 -11.273  0.00  0.00     0.286 C 
ATOM     19  N   UNL d   1       9.451   5.513 -10.740  0.00  0.00     0.146 N 
ATOM     20  C   UNL d   1       8.566   6.322 -11.568  0.00  0.00     0.286 C 
ATOM     21  C   UNL d   1       8.971   6.230 -13.043  0.00  0.00     0.286 C 
BRANCH  19  22
ATOM     22  C   UNL d   1       9.079   5.575  -9.320  0.00  0.00     0.277 C 
BRANCH  22  23
ATOM     23  C   UNL d   1       9.686   6.758  -8.571  0.00  0.00     0.011 A 
ATOM     24  C   UNL d   1       9.575   6.802  -7.165  0.00  0.00    -0.002 A 
ATOM     25  C   UNL d   1      10.135   7.875  -6.439  0.00  0.00     0.011 A 
ATOM     26  C   UNL d   1      10.794   8.919  -7.110  0.00  0.00     0.058 A 
ATOM     27  C   UNL d   1      10.912   8.880  -8.511  0.00  0.00     0.011 A 
ATOM     28 CL   UNL d   1      11.460  10.230  -6.213  0.00  0.00    -0.082 Cl
ATOM     29  C   UNL d   1      10.382   7.799  -9.236  0.00  0.00    -0.002 A 
ENDBRANCH  22  23
ENDBRANCH  19  22
ENDBRANCH   1  16
TORSDOF 4
