REMARK  7 active torsions:
REMARK  status: ('A' for Active; 'I' for Inactive)
REMARK    1  A    between atoms: C_2  and  C_3 
REMARK       I    between atoms: C_2  and  N_10 
REMARK    2  A    between atoms: C_3  and  C_4 
REMARK    3  A    between atoms: N_10  and  C_11 
REMARK    4  A    between atoms: C_14  and  C_15 
REMARK    5  A    between atoms: C_15  and  C_16 
REMARK    6  A    between atoms: C_16  and  N_17 
REMARK    7  A    between atoms: C_20  and  C_21 
ROOT
ATOM      1  C   UNL d   1      12.335   1.836 -19.364  0.00  0.00     0.035 C 
ENDROOT
BRANCH   1   2
ATOM      2  C   UNL d   1      13.401   2.914 -19.056  0.00  0.00     0.002 C 
ATOM      3  C   UNL d   1      13.963   3.491 -20.376  0.00  0.00     0.002 C 
ATOM      4  C   UNL d   1      14.992   4.604 -20.122  0.00  0.00     0.024 C 
ATOM      5  C   UNL d   1      14.396   5.724 -19.240  0.00  0.00     0.106 C 
ATOM      6  C   UNL d   1      13.884   5.157 -17.910  0.00  0.00     0.024 C 
ATOM      7  C   UNL d   1      12.862   4.069 -18.167  0.00  0.00     0.002 C 
BRANCH   5   8
ATOM      8  N   UNL d   1      15.321   6.830 -19.035  0.00  0.00    -0.240 NA
ATOM      9  C   UNL d   1      16.483   6.785 -18.369  0.00  0.00     0.254 C 
ATOM     10  O   UNL d   1      16.902   5.786 -17.786  0.00  0.00    -0.271 OA
BRANCH   9  11
ATOM     11  C   UNL d   1      17.297   8.072 -18.395  0.00  0.00     0.122 C 
BRANCH  11  12
ATOM     12  C   UNL d   1      18.621   7.982 -17.597  0.00  0.00     0.154 C 
ATOM     13  O   UNL d   1      19.467   6.921 -18.051  0.00  0.00    -0.351 OA
ATOM     14  C   UNL d   1      19.937   7.098 -19.379  0.00  0.00     0.174 C 
ATOM     15  C   UNL d   1      20.689   8.437 -19.448  0.00  0.00     0.174 C 
ATOM     16  O   UNL d   1      19.855   9.501 -18.993  0.00  0.00    -0.349 OA
ATOM     17  C   UNL d   1      19.412   9.299 -17.654  0.00  0.00     0.172 C 
ENDBRANCH  11  12
ENDBRANCH   9  11
ENDBRANCH   5   8
ENDBRANCH   1   2
BRANCH   1  18
ATOM     18  C   UNL d   1      11.861   1.012 -18.149  0.00  0.00     0.250 C 
BRANCH  18  19
ATOM     19  N   UNL d   1      11.218   1.798 -17.109  0.00  0.00     0.137 N 
ATOM     20  C   UNL d   1      10.028   2.512 -17.579  0.00  0.00     0.251 C 
ATOM     21  C   UNL d   1       9.552   3.489 -16.503  0.00  0.00     0.040 C 
ATOM     22  C   UNL d   1       9.258   2.764 -15.188  0.00  0.00     0.026 C 
ATOM     23  C   UNL d   1      10.474   1.912 -14.786  0.00  0.00     0.040 C 
ATOM     24  C   UNL d   1      10.918   1.001 -15.934  0.00  0.00     0.251 C 
BRANCH  22  25
ATOM     25  C   UNL d   1       8.860   3.742 -14.085  0.00  0.00    -0.024 A 
ATOM     26  C   UNL d   1       7.558   3.778 -13.545  0.00  0.00    -0.001 A 
ATOM     27  C   UNL d   1       7.193   4.670 -12.547  0.00  0.00     0.090 A 
ATOM     28  C   UNL d   1       6.383   2.930 -13.890  0.00  0.00     0.061 A 
ATOM     29  C   UNL d   1       8.123   5.584 -12.023  0.00  0.00     0.024 A 
ATOM     30  O   UNL d   1       5.888   4.541 -12.165  0.00  0.00    -0.331 OA
ATOM     31  C   UNL d   1       9.433   5.573 -12.538  0.00  0.00     0.002 A 
ATOM     32  C   UNL d   1       9.799   4.671 -13.568  0.00  0.00    -0.004 A 
ATOM     33  C   UNL d   1       5.287   3.518 -12.971  0.00  0.00     0.154 A 
ENDBRANCH  22  25
ENDBRANCH  18  19
ENDBRANCH   1  18
TORSDOF 7
