REMARK  8 active torsions:
REMARK  status: ('A' for Active; 'I' for Inactive)
REMARK    1  A    between atoms: C_2  and  C_4 
REMARK    2  A    between atoms: C_9  and  O_10 
REMARK    3  A    between atoms: O_10  and  C_11 
REMARK    4  A    between atoms: C_11  and  C_12 
REMARK    5  A    between atoms: C_12  and  N_13 
REMARK    6  A    between atoms: C_16  and  N_17 
REMARK    7  A    between atoms: N_17  and  S_18 
REMARK    8  A    between atoms: S_18  and  C_21 
ROOT
ATOM      1  N   UNL d   1       8.957   5.571  -8.749  0.00  0.00     0.142 N 
ATOM      2  C   UNL d   1       8.940   6.788  -9.512  0.00  0.00     0.253 C 
ATOM      3  C   UNL d   1       8.353   6.307 -10.844  0.00  0.00     0.063 C 
ATOM      4  C   UNL d   1       8.769   4.819 -10.908  0.00  0.00     0.151 C 
ATOM      5  C   UNL d   1       9.567   4.600  -9.630  0.00  0.00     0.275 C 
ENDROOT
BRANCH   1   6
ATOM      6  C   UNL d   1       9.787   5.810  -7.611  0.00  0.00     0.283 C 
BRANCH   6   7
ATOM      7  C   UNL d   1       9.014   6.463  -6.437  0.00  0.00     0.184 C 
BRANCH   7   8
ATOM      8  O   UNL d   1       9.958   6.793  -5.418  0.00  0.00    -0.329 OA
BRANCH   8   9
ATOM      9  C   UNL d   1      10.697   7.939  -5.617  0.00  0.00     0.090 A 
ATOM     10  C   UNL d   1      11.538   8.401  -4.568  0.00  0.00    -0.000 A 
ATOM     11  C   UNL d   1      12.315   9.567  -4.792  0.00  0.00    -0.002 A 
ATOM     12  C   UNL d   1      12.257  10.253  -6.011  0.00  0.00    -0.000 A 
ATOM     13  C   UNL d   1      11.441   9.795  -7.031  0.00  0.00     0.002 A 
ATOM     14  C   UNL d   1      10.645   8.673  -6.832  0.00  0.00     0.024 A 
BRANCH  10  15
ATOM     15  C   UNL d   1      11.623   7.678  -3.215  0.00  0.00     0.024 C 
ATOM     16  C   UNL d   1      11.873   8.658  -2.058  0.00  0.00     0.005 C 
ATOM     17  C   UNL d   1      12.665   6.593  -3.216  0.00  0.00     0.005 C 
ENDBRANCH  10  15
ENDBRANCH   8   9
ENDBRANCH   7   8
ENDBRANCH   6   7
ENDBRANCH   1   6
BRANCH   4  18
ATOM     18  N   UNL d   1       9.573   4.489 -12.100  0.00  0.00    -0.185 NA
BRANCH  18  19
ATOM     19  S   UNL d   1       8.876   4.619 -13.665  0.00  0.00     0.281 S 
ATOM     20  O   UNL d   1       8.310   5.972 -13.746  0.00  0.00    -0.199 OA
ATOM     21  O   UNL d   1       9.886   4.178 -14.645  0.00  0.00    -0.199 OA
BRANCH  19  22
ATOM     22  C   UNL d   1       7.514   3.449 -13.644  0.00  0.00     0.106 A 
ATOM     23  C   UNL d   1       7.568   2.309 -14.469  0.00  0.00     0.024 A 
ATOM     24  C   UNL d   1       6.548   1.336 -14.389  0.00  0.00     0.059 A 
ATOM     25  C   UNL d   1       5.503   1.493 -13.454  0.00  0.00     0.011 A 
ATOM     26 CL   UNL d   1       6.581  -0.025 -15.431  0.00  0.00    -0.082 Cl
ATOM     27  C   UNL d   1       5.448   2.635 -12.647  0.00  0.00     0.002 A 
ATOM     28  C   UNL d   1       6.419   3.652 -12.773  0.00  0.00     0.013 A 
ENDBRANCH  19  22
ENDBRANCH  18  19
ENDBRANCH   4  18
TORSDOF 8
