REMARK  6 active torsions:
REMARK  status: ('A' for Active; 'I' for Inactive)
REMARK       I    between atoms: C_2  and  N_3 
REMARK    1  A    between atoms: C_2  and  C_25 
REMARK    2  A    between atoms: N_3  and  C_4 
REMARK    3  A    between atoms: C_7  and  C_8 
REMARK    4  A    between atoms: C_8  and  C_9 
REMARK    5  A    between atoms: C_9  and  N_10 
REMARK    6  A    between atoms: N_13  and  C_14 
ROOT
ATOM      1  C   UNL d   1       8.441   3.548 -14.187  0.00  0.00     0.035 C 
ENDROOT
BRANCH   1   2
ATOM      2  C   UNL d   1       9.332   3.233 -15.392  0.00  0.00     0.002 C 
ATOM      3  C   UNL d   1      10.837   3.231 -15.033  0.00  0.00     0.002 C 
ATOM      4  C   UNL d   1      11.700   2.842 -16.244  0.00  0.00     0.024 C 
ATOM      5  C   UNL d   1      11.263   1.488 -16.826  0.00  0.00     0.107 C 
ATOM      6  C   UNL d   1       9.768   1.509 -17.191  0.00  0.00     0.024 C 
ATOM      7  C   UNL d   1       8.908   1.887 -15.983  0.00  0.00     0.002 C 
BRANCH   5   8
ATOM      8  N   UNL d   1      12.074   1.188 -17.992  0.00  0.00    -0.236 NA
ATOM      9  C   UNL d   1      12.150   0.000 -18.611  0.00  0.00     0.281 C 
ATOM     10  O   UNL d   1      11.480  -0.978 -18.286  0.00  0.00    -0.265 OA
BRANCH   9  11
ATOM     11  C   UNL d   1      13.176  -0.110 -19.664  0.00  0.00     0.087 A 
ATOM     12  S   UNL d   1      13.620   1.336 -20.540  0.00  0.00    -0.082 SA
ATOM     13  C   UNL d   1      14.761   0.444 -21.507  0.00  0.00     0.036 A 
ATOM     14  C   UNL d   1      14.774  -0.886 -21.174  0.00  0.00     0.008 A 
ATOM     15  C   UNL d   1      13.858  -1.205 -20.131  0.00  0.00     0.012 A 
ENDBRANCH   9  11
ENDBRANCH   5   8
ENDBRANCH   1   2
BRANCH   1  16
ATOM     16  C   UNL d   1       8.621   4.997 -13.738  0.00  0.00     0.250 C 
BRANCH  16  17
ATOM     17  N   UNL d   1       7.589   5.425 -12.801  0.00  0.00     0.141 N 
ATOM     18  C   UNL d   1       7.749   6.825 -12.402  0.00  0.00     0.274 C 
ATOM     19  C   UNL d   1       9.072   7.054 -11.642  0.00  0.00     0.137 C 
ATOM     20  N   UNL d   1       9.208   6.102 -10.533  0.00  0.00    -0.344 N 
ATOM     21  C   UNL d   1       8.839   4.711 -10.789  0.00  0.00     0.137 C 
ATOM     22  C   UNL d   1       7.509   4.630 -11.576  0.00  0.00     0.274 C 
BRANCH  20  23
ATOM     23  C   UNL d   1       9.439   6.561  -9.234  0.00  0.00     0.057 A 
ATOM     24  C   UNL d   1      10.398   7.567  -8.991  0.00  0.00     0.028 A 
ATOM     25  C   UNL d   1      10.655   8.002  -7.663  0.00  0.00     0.059 A 
ATOM     26  C   UNL d   1       9.941   7.443  -6.598  0.00  0.00     0.011 A 
ATOM     27 CL   UNL d   1      11.857   9.176  -7.329  0.00  0.00    -0.082 Cl
ATOM     28  C   UNL d   1       8.959   6.471  -6.840  0.00  0.00     0.002 A 
ATOM     29  C   UNL d   1       8.716   6.020  -8.147  0.00  0.00     0.017 A 
ENDBRANCH  20  23
ENDBRANCH  16  17
ENDBRANCH   1  16
TORSDOF 6
