REMARK  6 active torsions:
REMARK  status: ('A' for Active; 'I' for Inactive)
REMARK    1  A    between atoms: C_6  and  C_7 
REMARK    2  A    between atoms: C_10  and  S_11 
REMARK    3  A    between atoms: S_11  and  C_12 
REMARK    4  A    between atoms: C_12  and  C_13 
REMARK    5  A    between atoms: C_13  and  C_14 
REMARK    6  A    between atoms: C_14  and  N_15 
ROOT
ATOM      1  C   UNL d   1      10.444   2.323 -18.154  0.00  0.00     0.047 C 
ENDROOT
BRANCH   1   2
ATOM      2  C   UNL d   1      11.878   2.766 -18.555  0.00  0.00     0.067 C 
BRANCH   2   3
ATOM      3  S   UNL d   1      12.489   4.133 -17.486  0.00  0.00    -0.075 SA
BRANCH   3   4
ATOM      4  C   UNL d   1      11.512   3.898 -16.031  0.00  0.00     0.193 A 
ATOM      5  N   UNL d   1      11.941   3.216 -14.977  0.00  0.00    -0.122 NA
ATOM      6  N   UNL d   1      10.893   3.183 -14.098  0.00  0.00    -0.128 NA
ATOM      7  C   UNL d   1       9.918   3.872 -14.688  0.00  0.00     0.174 A 
ATOM      8  N   UNL d   1      10.255   4.376 -15.893  0.00  0.00    -0.288 N 
ATOM      9  C   UNL d   1       9.457   5.219 -16.785  0.00  0.00     0.134 C 
BRANCH   7  10
ATOM     10  C   UNL d   1       8.635   4.056 -14.042  0.00  0.00     0.080 A 
ATOM     11  C   UNL d   1       7.522   3.249 -14.035  0.00  0.00     0.069 A 
ATOM     12  N   UNL d   1       6.456   3.798 -13.318  0.00  0.00    -0.247 NA
ATOM     13  C   UNL d   1       7.343   1.909 -14.670  0.00  0.00     0.053 C 
ATOM     14  C   UNL d   1       6.769   4.969 -12.761  0.00  0.00     0.088 A 
ATOM     15  C   UNL d   1       5.817   5.772 -11.958  0.00  0.00     0.059 C 
ATOM     16  S   UNL d   1       8.411   5.492 -13.091  0.00  0.00    -0.068 SA
ENDBRANCH   7  10
ENDBRANCH   3   4
ENDBRANCH   2   3
ENDBRANCH   1   2
BRANCH   1  17
ATOM     17  C   UNL d   1       9.778   1.366 -19.168  0.00  0.00     0.251 C 
BRANCH  17  18
ATOM     18  N   UNL d   1       8.434   1.076 -18.669  0.00  0.00     0.137 N 
ATOM     19  C   UNL d   1       7.632   0.426 -19.698  0.00  0.00     0.254 C 
ATOM     20  C   UNL d   1       6.513  -0.278 -18.925  0.00  0.00     0.052 C 
ATOM     21  C   UNL d   1       7.046  -0.450 -17.503  0.00  0.00     0.041 C 
ATOM     22  C   UNL d   1       6.115  -1.611 -19.488  0.00  0.00    -0.025 A 
ATOM     23  C   UNL d   1       5.175   0.517 -18.929  0.00  0.00     0.011 C 
ATOM     24  C   UNL d   1       8.465   0.089 -17.590  0.00  0.00     0.251 C 
ATOM     25  C   UNL d   1       4.743  -1.767 -19.586  0.00  0.00    -0.025 A 
ATOM     26  C   UNL d   1       6.997  -2.662 -19.779  0.00  0.00    -0.004 A 
ATOM     27  C   UNL d   1       4.009  -0.517 -19.138  0.00  0.00     0.026 C 
ATOM     28  C   UNL d   1       4.180  -2.990 -19.970  0.00  0.00     0.007 A 
ATOM     29  C   UNL d   1       5.047  -4.056 -20.271  0.00  0.00     0.057 A 
ATOM     30 CL   UNL d   1       4.399  -5.555 -20.777  0.00  0.00    -0.082 Cl
ATOM     31  C   UNL d   1       6.442  -3.890 -20.175  0.00  0.00     0.011 A 
ENDBRANCH  17  18
ENDBRANCH   1  17
TORSDOF 6
