REMARK  4 active torsions:
REMARK  status: ('A' for Active; 'I' for Inactive)
REMARK    1  A    between atoms: C_8  and  C_9 
REMARK    2  A    between atoms: C_9  and  C_10 
REMARK    3  A    between atoms: C_10  and  N_11 
REMARK    4  A    between atoms: N_14  and  C_15 
ROOT
ATOM      1  N   UNL d   1       9.207   4.571 -14.159  0.00  0.00     0.141 N 
ATOM      2  C   UNL d   1      10.172   4.600 -15.259  0.00  0.00     0.274 C 
ATOM      3  C   UNL d   1       9.584   3.957 -16.517  0.00  0.00     0.137 C 
ATOM      4  N   UNL d   1       9.092   2.618 -16.226  0.00  0.00    -0.344 N 
ATOM      5  C   UNL d   1       8.247   2.473 -15.043  0.00  0.00     0.137 C 
ATOM      6  C   UNL d   1       8.891   3.180 -13.838  0.00  0.00     0.274 C 
ENDROOT
BRANCH   1   7
ATOM      7  C   UNL d   1       9.810   5.208 -13.005  0.00  0.00     0.255 C 
BRANCH   7   8
ATOM      8  C   UNL d   1       8.760   5.538 -11.931  0.00  0.00     0.068 C 
BRANCH   8   9
ATOM      9  C   UNL d   1       9.313   6.467 -10.859  0.00  0.00     0.050 A 
ATOM     10  C   UNL d   1       9.479   7.810 -11.049  0.00  0.00     0.061 A 
ATOM     11  C   UNL d   1       9.053   8.515 -12.325  0.00  0.00     0.052 C 
ATOM     12  N   UNL d   1       9.997   8.634 -10.054  0.00  0.00    -0.234 NA
ATOM     13  C   UNL d   1      10.291   8.126  -8.909  0.00  0.00     0.153 A 
ATOM     14  C   UNL d   1      10.868   8.957  -7.758  0.00  0.00     0.208 C 
ATOM     15  N   UNL d   1      10.124   6.757  -8.620  0.00  0.00    -0.283 N 
ATOM     16  C   UNL d   1      12.056   8.285  -7.065  0.00  0.00     0.043 C 
ATOM     17  O   UNL d   1       9.862   9.159  -6.769  0.00  0.00    -0.215 OA
ATOM     18  C   UNL d   1      11.799   6.798  -6.754  0.00  0.00     0.028 C 
ATOM     19  C   UNL d   1      10.438   6.295  -7.263  0.00  0.00     0.111 C 
ATOM     20  C   UNL d   1       9.637   5.885  -9.550  0.00  0.00     0.259 A 
ATOM     21  O   UNL d   1       9.483   4.681  -9.301  0.00  0.00    -0.267 OA
ENDBRANCH   8   9
ENDBRANCH   7   8
ENDBRANCH   1   7
BRANCH   4  22
ATOM     22  C   UNL d   1       9.479   1.514 -17.006  0.00  0.00     0.053 A 
ATOM     23  C   UNL d   1       9.478   1.552 -18.421  0.00  0.00    -0.000 A 
ATOM     24  C   UNL d   1       9.847   0.411 -19.148  0.00  0.00     0.023 A 
ATOM     25  C   UNL d   1       9.013   2.700 -19.313  0.00  0.00     0.040 C 
ATOM     26  C   UNL d   1      10.228  -0.779 -18.522  0.00  0.00     0.006 A 
ATOM     27  S   UNL d   1       9.761   0.600 -20.878  0.00  0.00    -0.114 SA
ATOM     28  C   UNL d   1      10.245  -0.821 -17.120  0.00  0.00     0.002 A 
ATOM     29  C   UNL d   1       9.871   0.314 -16.361  0.00  0.00     0.017 A 
ATOM     30  C   UNL d   1       9.534   2.397 -20.727  0.00  0.00     0.067 C 
ENDBRANCH   4  22
TORSDOF 4
