REMARK  12 active torsions:
REMARK  status: ('A' for Active; 'I' for Inactive)
REMARK    1  A    between atoms: C_2  and  C_3 
REMARK    2  A    between atoms: C_5  and  C_6 
REMARK    3  A    between atoms: C_6  and  C_8 
REMARK    4  A    between atoms: C_8  and  N_9 
REMARK    5  A    between atoms: N_9  and  C_10 
REMARK    6  A    between atoms: C_10  and  C_11 
REMARK    7  A    between atoms: C_11  and  C_12 
REMARK    8  A    between atoms: C_15  and  C_16 
REMARK    9  A    between atoms: C_16  and  N_17 
REMARK   10  A    between atoms: N_17  and  C_18 
REMARK   11  A    between atoms: C_18  and  C_19 
REMARK   12  A    between atoms: C_19  and  C_20 
ROOT
ATOM      1  C   UNL d   1       9.454   5.082 -10.867  0.00  0.00    -0.020 A 
ATOM      2  C   UNL d   1       9.523   6.448 -11.185  0.00  0.00    -0.004 A 
ATOM      3  C   UNL d   1       9.495   7.404 -10.163  0.00  0.00    -0.003 A 
ATOM      4  C   UNL d   1       9.346   7.004  -8.825  0.00  0.00     0.013 A 
ATOM      5  C   UNL d   1       9.280   5.638  -8.501  0.00  0.00    -0.003 A 
ATOM      6  C   UNL d   1       9.372   4.676  -9.518  0.00  0.00    -0.004 A 
ENDROOT
BRANCH   1   7
ATOM      7  C   UNL d   1       9.641   4.090 -11.998  0.00  0.00     0.065 C 
BRANCH   7   8
ATOM      8  C   UNL d   1       8.404   4.001 -12.897  0.00  0.00     0.295 C 
BRANCH   8   9
ATOM      9  N   UNL d   1       8.689   3.122 -14.025  0.00  0.00     0.343 N 
BRANCH   9  10
ATOM     10  C   UNL d   1       7.512   2.458 -14.570  0.00  0.00     0.327 C 
BRANCH  10  11
ATOM     11  C   UNL d   1       7.934   1.399 -15.605  0.00  0.00     0.210 C 
ATOM     12  O   UNL d   1       8.541   2.065 -16.702  0.00  0.00    -0.216 OA
BRANCH  11  13
ATOM     13  C   UNL d   1       6.744   0.530 -16.009  0.00  0.00     0.010 A 
ATOM     14  C   UNL d   1       6.152   0.629 -17.286  0.00  0.00    -0.002 A 
ATOM     15  C   UNL d   1       5.064  -0.197 -17.640  0.00  0.00     0.036 A 
ATOM     16  C   UNL d   1       4.559  -1.136 -16.712  0.00  0.00     0.129 A 
ATOM     17  C   UNL d   1       5.135  -1.224 -15.428  0.00  0.00     0.027 A 
ATOM     18  O   UNL d   1       3.526  -1.964 -17.071  0.00  0.00    -0.190 OA
ATOM     19  C   UNL d   1       6.223  -0.397 -15.081  0.00  0.00     0.000 A 
BRANCH  15  20
ATOM     20  C   UNL d   1       4.431  -0.022 -19.007  0.00  0.00     0.211 C 
ATOM     21  O   UNL d   1       4.679  -1.125 -19.843  0.00  0.00    -0.215 OA
ENDBRANCH  15  20
ENDBRANCH  11  13
ENDBRANCH  10  11
ENDBRANCH   9  10
ENDBRANCH   8   9
ENDBRANCH   7   8
ENDBRANCH   1   7
BRANCH   4  22
ATOM     22  C   UNL d   1       9.162   8.058  -7.763  0.00  0.00     0.317 C 
BRANCH  22  23
ATOM     23  N   UNL d   1      10.420   8.309  -7.104  0.00  0.00     0.344 N 
BRANCH  23  24
ATOM     24  C   UNL d   1      10.414   9.550  -6.365  0.00  0.00     0.295 C 
BRANCH  24  25
ATOM     25  C   UNL d   1      11.745   9.747  -5.638  0.00  0.00     0.065 C 
BRANCH  25  26
ATOM     26  C   UNL d   1      11.894   8.864  -4.408  0.00  0.00    -0.020 A 
ATOM     27  C   UNL d   1      11.866   7.457  -4.524  0.00  0.00    -0.004 A 
ATOM     28  C   UNL d   1      12.011   6.655  -3.391  0.00  0.00    -0.000 A 
ATOM     29  C   UNL d   1      12.232   7.229  -2.139  0.00  0.00    -0.000 A 
ATOM     30  C   UNL d   1      12.260   8.627  -2.012  0.00  0.00    -0.000 A 
ATOM     31  C   UNL d   1      12.073   9.444  -3.136  0.00  0.00    -0.004 A 
ENDBRANCH  25  26
ENDBRANCH  24  25
ENDBRANCH  23  24
ENDBRANCH  22  23
ENDBRANCH   4  22
TORSDOF 12
