REMARK  2 active torsions:
REMARK  status: ('A' for Active; 'I' for Inactive)
REMARK    1  A    between atoms: N_13  and  C_14 
REMARK    2  A    between atoms: C_14  and  C_15 
ROOT
ATOM      1  N   UNL d   1       3.317  -0.822 -14.704  0.00  0.00    -0.191 NA
ATOM      2  C   UNL d   1       4.407  -0.474 -14.854  0.00  0.00     0.101 C 
ATOM      3  C   UNL d   1       5.780  -0.039 -15.034  0.00  0.00     0.070 A 
ATOM      4  C   UNL d   1       6.655  -0.044 -13.932  0.00  0.00     0.010 A 
ATOM      5  C   UNL d   1       7.983   0.390 -14.095  0.00  0.00    -0.002 A 
ATOM      6  C   UNL d   1       8.445   0.809 -15.357  0.00  0.00     0.002 A 
ATOM      7  C   UNL d   1       7.569   0.793 -16.467  0.00  0.00     0.091 A 
ATOM      8  C   UNL d   1       6.234   0.385 -16.299  0.00  0.00     0.034 A 
ATOM      9  O   UNL d   1       7.997   1.175 -17.719  0.00  0.00    -0.331 OA
ATOM     10  C   UNL d   1       9.354   0.853 -17.990  0.00  0.00     0.151 C 
ATOM     11  C   UNL d   1      10.302   1.477 -16.961  0.00  0.00     0.070 C 
ATOM     12  C   UNL d   1      10.494   2.974 -17.163  0.00  0.00     0.254 C 
ATOM     13  N   UNL d   1      10.952   3.395 -15.838  0.00  0.00     0.142 N 
ATOM     14  C   UNL d   1       9.974   2.778 -14.950  0.00  0.00     0.255 C 
ATOM     15  C   UNL d   1       9.855   1.350 -15.504  0.00  0.00     0.062 C 
ENDROOT
BRANCH  13  16
ATOM     16  C   UNL d   1      11.005   4.848 -15.700  0.00  0.00     0.277 C 
BRANCH  16  17
ATOM     17  C   UNL d   1      12.227   5.497 -16.353  0.00  0.00     0.011 A 
ATOM     18  C   UNL d   1      12.535   6.854 -16.060  0.00  0.00    -0.002 A 
ATOM     19  C   UNL d   1      13.636   7.483 -16.677  0.00  0.00    -0.000 A 
ATOM     20  C   UNL d   1      14.431   6.780 -17.606  0.00  0.00    -0.000 A 
ATOM     21  C   UNL d   1      14.129   5.428 -17.892  0.00  0.00    -0.000 A 
ATOM     22  C   UNL d   1      13.064   4.783 -17.247  0.00  0.00    -0.002 A 
ENDBRANCH  16  17
ENDBRANCH  13  16
TORSDOF 2
