REMARK  9 active torsions:
REMARK  status: ('A' for Active; 'I' for Inactive)
REMARK    1  A    between atoms: C_5  and  O_6 
REMARK    2  A    between atoms: O_6  and  C_7 
REMARK    3  A    between atoms: C_7  and  C_8 
REMARK    4  A    between atoms: C_8  and  N_9 
REMARK    5  A    between atoms: N_9  and  C_10 
REMARK    6  A    between atoms: C_10  and  C_11 
REMARK    7  A    between atoms: C_11  and  C_12 
REMARK    8  A    between atoms: C_12  and  O_13 
REMARK    9  A    between atoms: O_13  and  C_14 
ROOT
ATOM      1  N   UNL d   1       9.250   6.446 -10.604  0.00  0.00     0.342 N 
ENDROOT
BRANCH   1   2
ATOM      2  C   UNL d   1       9.266   6.114 -12.009  0.00  0.00     0.323 C 
BRANCH   2   3
ATOM      3  C   UNL d   1       8.149   5.118 -12.327  0.00  0.00     0.187 C 
BRANCH   3   4
ATOM      4  O   UNL d   1       8.075   4.970 -13.738  0.00  0.00    -0.329 OA
BRANCH   4   5
ATOM      5  C   UNL d   1       9.097   4.303 -14.374  0.00  0.00     0.094 A 
ATOM      6  C   UNL d   1       9.465   4.744 -15.659  0.00  0.00     0.024 A 
ATOM      7  C   UNL d   1      10.442   4.066 -16.412  0.00  0.00    -0.002 A 
ATOM      8  C   UNL d   1      11.084   2.943 -15.861  0.00  0.00    -0.022 A 
ATOM      9  C   UNL d   1      12.148   2.222 -16.652  0.00  0.00     0.031 C 
ATOM     10  C   UNL d   1      10.738   2.503 -14.567  0.00  0.00    -0.002 A 
ATOM     11  C   UNL d   1       9.746   3.175 -13.827  0.00  0.00     0.024 A 
ENDBRANCH   4   5
ENDBRANCH   3   4
ENDBRANCH   2   3
ENDBRANCH   1   2
BRANCH   1  12
ATOM     12  C   UNL d   1      10.257   7.468 -10.346  0.00  0.00     0.293 C 
BRANCH  12  13
ATOM     13  C   UNL d   1      10.050   7.921  -8.903  0.00  0.00     0.071 C 
BRANCH  13  14
ATOM     14  C   UNL d   1      11.112   8.956  -8.440  0.00  0.00     0.151 C 
BRANCH  14  15
ATOM     15  O   UNL d   1      10.836   9.637  -7.220  0.00  0.00    -0.331 OA
BRANCH  15  16
ATOM     16  C   UNL d   1      11.115   9.019  -6.035  0.00  0.00     0.094 A 
ATOM     17  C   UNL d   1      11.431   9.833  -4.917  0.00  0.00     0.025 A 
ATOM     18  C   UNL d   1      11.837   9.238  -3.702  0.00  0.00     0.009 A 
ATOM     19  C   UNL d   1      11.858   7.827  -3.639  0.00  0.00     0.035 A 
ATOM     20  C   UNL d   1      11.491   7.030  -4.719  0.00  0.00     0.009 A 
ATOM     21 BR   UNL d   1      12.258   6.905  -2.048  0.00  0.00    -0.049 Br
ATOM     22  C   UNL d   1      11.134   7.608  -5.915  0.00  0.00     0.025 A 
ENDBRANCH  15  16
ENDBRANCH  14  15
ENDBRANCH  13  14
ENDBRANCH  12  13
ENDBRANCH   1  12
TORSDOF 9
