REMARK  12 active torsions:
REMARK  status: ('A' for Active; 'I' for Inactive)
REMARK    1  A    between atoms: O_2  and  C_3 
REMARK    2  A    between atoms: C_9  and  C_10 
REMARK    3  A    between atoms: C_12  and  C_13 
REMARK    4  A    between atoms: C_13  and  N_14 
REMARK    5  A    between atoms: N_14  and  C_15 
REMARK    6  A    between atoms: N_14  and  C_31 
REMARK    7  A    between atoms: C_15  and  C_16 
REMARK    8  A    between atoms: C_16  and  C_17 
REMARK    9  A    between atoms: C_17  and  S_18 
REMARK   10  A    between atoms: S_18  and  C_19 
REMARK   11  A    between atoms: C_22  and  C_23 
REMARK   12  A    between atoms: C_31  and  C_32 
ROOT
ATOM      1  N   UNL d   1      11.385   4.134 -15.865  0.00  0.00     0.137 N 
ENDROOT
BRANCH   1   2
ATOM      2  C   UNL d   1      11.770   2.787 -15.405  0.00  0.00     0.251 C 
BRANCH   2   3
ATOM      3  C   UNL d   1      10.937   1.685 -16.075  0.00  0.00     0.038 A 
ATOM      4  C   UNL d   1       9.503   1.489 -15.652  0.00  0.00     0.026 A 
ATOM      5  C   UNL d   1      10.550   0.434 -15.303  0.00  0.00     0.007 A 
BRANCH   4   6
ATOM      6  C   UNL d   1       8.449   1.175 -16.705  0.00  0.00     0.001 A 
ATOM      7  C   UNL d   1       7.265   0.489 -16.352  0.00  0.00     0.090 A 
ATOM      8  C   UNL d   1       6.299   0.212 -17.353  0.00  0.00     0.025 A 
ATOM      9  C   UNL d   1       6.506   0.631 -18.682  0.00  0.00     0.013 A 
ATOM     10  C   UNL d   1       7.673   1.342 -19.019  0.00  0.00     0.058 A 
ATOM     11 CL   UNL d   1       7.938   1.867 -20.646  0.00  0.00    -0.082 Cl
ATOM     12  C   UNL d   1       8.631   1.629 -18.030  0.00  0.00     0.009 A 
BRANCH   7  13
ATOM     13  O   UNL d   1       7.111   0.139 -15.026  0.00  0.00    -0.328 OA
ATOM     14  C   UNL d   1       5.935  -0.559 -14.643  0.00  0.00     0.181 C 
ENDBRANCH   7  13
ENDBRANCH   4   6
ENDBRANCH   2   3
ENDBRANCH   1   2
BRANCH   1  15
ATOM     15  C   UNL d   1       9.975   4.429 -15.591  0.00  0.00     0.251 C 
BRANCH  15  16
ATOM     16  C   UNL d   1       9.636   4.381 -14.091  0.00  0.00     0.047 C 
BRANCH  16  17
ATOM     17  C   UNL d   1       8.151   4.618 -13.811  0.00  0.00     0.067 C 
BRANCH  17  18
ATOM     18  S   UNL d   1       7.768   4.471 -12.037  0.00  0.00    -0.075 SA
BRANCH  18  19
ATOM     19  C   UNL d   1       8.661   5.863 -11.416  0.00  0.00     0.193 A 
ATOM     20  N   UNL d   1       9.059   5.959 -10.130  0.00  0.00    -0.289 N 
ATOM     21  C   UNL d   1       9.688   7.154 -10.123  0.00  0.00     0.167 A 
ATOM     22  C   UNL d   1       8.845   5.035  -9.027  0.00  0.00     0.134 C 
ATOM     23  N   UNL d   1       9.681   7.763 -11.311  0.00  0.00    -0.128 NA
ATOM     24  N   UNL d   1       9.017   6.910 -12.162  0.00  0.00    -0.122 NA
BRANCH  21  25
ATOM     25  C   UNL d   1      10.314   7.773  -8.967  0.00  0.00     0.036 A 
ATOM     26  C   UNL d   1       9.558   7.989  -7.799  0.00  0.00     0.003 A 
ATOM     27  C   UNL d   1      10.163   8.605  -6.685  0.00  0.00     0.000 A 
ATOM     28  C   UNL d   1      11.511   9.002  -6.747  0.00  0.00     0.000 A 
ATOM     29  C   UNL d   1      12.261   8.795  -7.920  0.00  0.00     0.000 A 
ATOM     30  C   UNL d   1      11.657   8.179  -9.037  0.00  0.00     0.003 A 
ENDBRANCH  21  25
ENDBRANCH  18  19
ENDBRANCH  17  18
ENDBRANCH  16  17
ENDBRANCH  15  16
ENDBRANCH   1  15
BRANCH   1  31
ATOM     31  C   UNL d   1      12.305   5.139 -15.321  0.00  0.00     0.250 C 
BRANCH  31  32
ATOM     32  C   UNL d   1      12.171   6.473 -16.047  0.00  0.00     0.033 A 
ATOM     33  C   UNL d   1      12.849   7.709 -15.509  0.00  0.00     0.002 A 
ATOM     34  C   UNL d   1      13.345   7.075 -16.776  0.00  0.00     0.002 A 
ENDBRANCH  31  32
ENDBRANCH   1  31
TORSDOF 12
