REMARK  4 active torsions:
REMARK  status: ('A' for Active; 'I' for Inactive)
REMARK    1  A    between atoms: N_5  and  C_6 
REMARK    2  A    between atoms: N_15  and  N_16 
REMARK       I    between atoms: N_16  and  C_17 
REMARK    3  A    between atoms: C_17  and  C_19 
REMARK    4  A    between atoms: C_24  and  N_25 
ROOT
ATOM      1  C   UNL d   1       9.156   2.545 -20.422  0.00  0.00     0.142 C 
ATOM      2  N   UNL d   1       8.107   2.357 -21.156  0.00  0.00    -0.227 NA
ATOM      3  C   UNL d   1       7.469   1.118 -21.366  0.00  0.00     0.101 A 
ATOM      4  C   UNL d   1       6.864   0.933 -22.629  0.00  0.00     0.032 A 
ATOM      5  C   UNL d   1       6.124  -0.228 -22.922  0.00  0.00     0.059 A 
ATOM      6 CL   UNL d   1       5.427  -0.431 -24.483  0.00  0.00    -0.082 Cl
ATOM      7  C   UNL d   1       5.955  -1.218 -21.939  0.00  0.00     0.013 A 
ATOM      8  C   UNL d   1       6.541  -1.050 -20.673  0.00  0.00     0.022 A 
ATOM      9  C   UNL d   1       7.298   0.105 -20.379  0.00  0.00     0.101 A 
ATOM     10  N   UNL d   1       7.925   0.185 -19.134  0.00  0.00    -0.225 N 
ATOM     11  C   UNL d   1       9.303   0.387 -19.037  0.00  0.00     0.086 A 
ATOM     12  C   UNL d   1      10.085  -0.523 -18.287  0.00  0.00     0.019 A 
ATOM     13  C   UNL d   1      11.482  -0.388 -18.236  0.00  0.00     0.002 A 
ATOM     14  C   UNL d   1      12.113   0.646 -18.948  0.00  0.00     0.000 A 
ATOM     15  C   UNL d   1      11.342   1.538 -19.714  0.00  0.00     0.004 A 
ATOM     16  C   UNL d   1       9.929   1.454 -19.731  0.00  0.00     0.051 A 
ENDROOT
BRANCH  10  17
ATOM     17  N   UNL d   1       7.186  -0.108 -17.986  0.00  0.00    -0.123 NA
ATOM     18  C   UNL d   1       6.747   0.842 -17.153  0.00  0.00     0.297 C 
ATOM     19  O   UNL d   1       7.024   2.031 -17.303  0.00  0.00    -0.264 OA
BRANCH  18  20
ATOM     20  C   UNL d   1       5.877   0.343 -16.021  0.00  0.00     0.075 A 
ATOM     21  C   UNL d   1       5.884   0.916 -14.703  0.00  0.00     0.061 A 
ATOM     22  C   UNL d   1       4.990   0.383 -13.736  0.00  0.00     0.017 A 
ATOM     23  C   UNL d   1       4.087  -0.644 -14.054  0.00  0.00     0.002 A 
ATOM     24  C   UNL d   1       4.094  -1.216 -15.329  0.00  0.00     0.000 A 
ATOM     25  C   UNL d   1       4.976  -0.727 -16.302  0.00  0.00     0.006 A 
BRANCH  21  26
ATOM     26  N   UNL d   1       6.727   2.008 -14.343  0.00  0.00    -0.344 N 
ATOM     27  C   UNL d   1       8.147   1.653 -14.274  0.00  0.00     0.137 C 
ATOM     28  C   UNL d   1       9.019   2.911 -14.056  0.00  0.00     0.274 C 
ATOM     29  N   UNL d   1       8.585   3.671 -12.881  0.00  0.00     0.143 N 
ATOM     30  C   UNL d   1       7.200   4.125 -13.075  0.00  0.00     0.274 C 
ATOM     31  C   UNL d   1       9.460   4.790 -12.617  0.00  0.00     0.286 C 
ATOM     32  C   UNL d   1       6.277   2.906 -13.263  0.00  0.00     0.137 C 
ENDBRANCH  21  26
ENDBRANCH  18  20
ENDBRANCH  10  17
BRANCH   1  33
ATOM     33  N   UNL d   1       9.659   3.832 -20.187  0.00  0.00    -0.330 N 
ATOM     34  C   UNL d   1      10.060   4.325 -18.872  0.00  0.00     0.138 C 
ATOM     35  C   UNL d   1      11.481   4.921 -18.928  0.00  0.00     0.274 C 
ATOM     36  N   UNL d   1      11.529   5.993 -19.931  0.00  0.00     0.143 N 
ATOM     37  C   UNL d   1      12.873   6.535 -19.971  0.00  0.00     0.286 C 
ATOM     38  C   UNL d   1      11.182   5.438 -21.248  0.00  0.00     0.274 C 
ATOM     39  C   UNL d   1       9.755   4.860 -21.215  0.00  0.00     0.138 C 
ENDBRANCH   1  33
TORSDOF 4
