REMARK  6 active torsions:
REMARK  status: ('A' for Active; 'I' for Inactive)
REMARK    1  A    between atoms: N_3  and  C_4 
REMARK    2  A    between atoms: C_4  and  C_5 
REMARK    3  A    between atoms: C_5  and  C_6 
REMARK    4  A    between atoms: C_6  and  C_7 
REMARK    5  A    between atoms: C_7  and  N_8 
REMARK    6  A    between atoms: N_11  and  C_12 
ROOT
ATOM      1  N   UNL d   1       9.587   6.174  -9.148  0.00  0.00     0.141 N 
ATOM      2  C   UNL d   1      10.835   6.926  -9.074  0.00  0.00     0.274 C 
ATOM      3  C   UNL d   1      11.460   6.788  -7.670  0.00  0.00     0.137 C 
ATOM      4  N   UNL d   1      10.513   7.253  -6.680  0.00  0.00    -0.344 N 
ATOM      5  C   UNL d   1       9.184   6.682  -6.752  0.00  0.00     0.137 C 
ATOM      6  C   UNL d   1       8.667   6.768  -8.181  0.00  0.00     0.274 C 
ENDROOT
BRANCH   1   7
ATOM      7  C   UNL d   1       8.978   6.301 -10.476  0.00  0.00     0.251 C 
BRANCH   7   8
ATOM      8  C   UNL d   1       9.742   5.477 -11.519  0.00  0.00     0.037 C 
BRANCH   8   9
ATOM      9  C   UNL d   1       8.919   5.202 -12.770  0.00  0.00     0.029 C 
BRANCH   9  10
ATOM     10  C   UNL d   1       9.741   4.497 -13.896  0.00  0.00     0.133 C 
BRANCH  10  11
ATOM     11  N   UNL d   1       9.021   3.458 -14.638  0.00  0.00    -0.201 N 
ATOM     12  C   UNL d   1       9.287   2.980 -15.863  0.00  0.00     0.352 A 
ATOM     13  O   UNL d   1      10.168   3.337 -16.644  0.00  0.00    -0.244 OA
ATOM     14  N   UNL d   1       8.365   2.038 -16.052  0.00  0.00    -0.240 N 
ATOM     15  C   UNL d   1       7.585   1.970 -14.915  0.00  0.00     0.181 A 
ATOM     16  C   UNL d   1       8.150   1.245 -17.182  0.00  0.00     0.086 A 
ATOM     17  N   UNL d   1       7.979   2.829 -14.041  0.00  0.00    -0.147 NA
ATOM     18  C   UNL d   1       6.498   1.003 -14.905  0.00  0.00     0.094 A 
ATOM     19 CL   UNL d   1       5.473   0.866 -13.524  0.00  0.00    -0.079 Cl
ATOM     20  C   UNL d   1       6.286   0.241 -15.992  0.00  0.00     0.016 A 
ATOM     21  C   UNL d   1       7.134   0.350 -17.183  0.00  0.00     0.020 A 
ENDBRANCH  10  11
ENDBRANCH   9  10
ENDBRANCH   8   9
ENDBRANCH   7   8
ENDBRANCH   1   7
BRANCH   4  22
ATOM     22  C   UNL d   1      10.868   8.152  -5.709  0.00  0.00     0.057 A 
ATOM     23  C   UNL d   1      11.476   7.747  -4.487  0.00  0.00     0.022 A 
ATOM     24  C   UNL d   1      11.788   8.747  -3.530  0.00  0.00     0.031 A 
ATOM     25  C   UNL d   1      11.865   6.465  -4.010  0.00  0.00     0.009 A 
ATOM     26  C   UNL d   1      11.455  10.059  -3.746  0.00  0.00     0.007 A 
ATOM     27  S   UNL d   1      12.531   8.119  -2.093  0.00  0.00    -0.086 SA
ATOM     28  C   UNL d   1      10.861  10.444  -4.959  0.00  0.00     0.002 A 
ATOM     29  C   UNL d   1      10.575   9.499  -5.951  0.00  0.00     0.017 A 
ATOM     30  C   UNL d   1      12.429   6.530  -2.765  0.00  0.00     0.035 A 
ENDBRANCH   4  22
TORSDOF 6
