REMARK  8 active torsions:
REMARK  status: ('A' for Active; 'I' for Inactive)
REMARK    1  A    between atoms: C_4  and  O_5 
REMARK    2  A    between atoms: O_5  and  C_6 
REMARK    3  A    between atoms: C_6  and  C_7 
REMARK    4  A    between atoms: C_7  and  C_8 
REMARK    5  A    between atoms: C_8  and  N_9 
REMARK    6  A    between atoms: C_12  and  C_13 
REMARK    7  A    between atoms: C_27  and  C_28 
REMARK    8  A    between atoms: C_28  and  N_29 
ROOT
ATOM      1  C   UNL d   1       8.168   6.358 -11.654  0.00  0.00     0.068 C 
ENDROOT
BRANCH   1   2
ATOM      2  C   UNL d   1       7.976   5.562 -12.946  0.00  0.00     0.151 C 
BRANCH   2   3
ATOM      3  O   UNL d   1       9.041   4.635 -13.126  0.00  0.00    -0.331 OA
BRANCH   3   4
ATOM      4  C   UNL d   1       8.807   3.514 -13.886  0.00  0.00     0.094 A 
ATOM      5  C   UNL d   1       9.908   2.834 -14.442  0.00  0.00     0.020 A 
ATOM      6  C   UNL d   1       9.715   1.694 -15.249  0.00  0.00    -0.022 A 
ATOM      7  C   UNL d   1      10.909   0.981 -15.871  0.00  0.00     0.031 C 
ATOM      8  C   UNL d   1       8.399   1.236 -15.476  0.00  0.00     0.007 A 
ATOM      9  C   UNL d   1       7.299   1.900 -14.901  0.00  0.00    -0.001 A 
ATOM     10  C   UNL d   1       7.494   3.037 -14.094  0.00  0.00     0.024 A 
BRANCH   8  11
ATOM     11  C   UNL d   1       8.111   0.015 -16.325  0.00  0.00     0.277 C 
BRANCH  11  12
ATOM     12  N   UNL d   1       8.348   0.214 -17.756  0.00  0.00     0.147 N 
ATOM     13  C   UNL d   1       8.181  -1.028 -18.504  0.00  0.00     0.283 C 
ATOM     14  C   UNL d   1       6.702  -1.458 -18.617  0.00  0.00     0.178 C 
ATOM     15  O   UNL d   1       5.942  -0.402 -19.205  0.00  0.00    -0.350 OA
ATOM     16  C   UNL d   1       6.026   0.825 -18.481  0.00  0.00     0.178 C 
ATOM     17  C   UNL d   1       7.505   1.249 -18.357  0.00  0.00     0.283 C 
ENDBRANCH  11  12
ENDBRANCH   8  11
ENDBRANCH   3   4
ENDBRANCH   2   3
ENDBRANCH   1   2
BRANCH   1  18
ATOM     18  C   UNL d   1       9.595   6.902 -11.465  0.00  0.00     0.253 C 
BRANCH  18  19
ATOM     19  N   UNL d   1       9.841   7.509 -10.157  0.00  0.00     0.137 N 
ATOM     20  C   UNL d   1       9.382   6.648  -9.061  0.00  0.00     0.251 C 
ATOM     21  C   UNL d   1       9.561   7.358  -7.723  0.00  0.00     0.041 C 
ATOM     22  C   UNL d   1      11.018   7.761  -7.511  0.00  0.00     0.047 C 
ATOM     23  C   UNL d   1      11.559   8.528  -8.727  0.00  0.00     0.041 C 
ATOM     24  C   UNL d   1      11.273   7.777 -10.020  0.00  0.00     0.251 C 
BRANCH  22  25
ATOM     25  C   UNL d   1      11.145   8.575  -6.253  0.00  0.00     0.087 A 
ATOM     26  C   UNL d   1      11.515   8.191  -4.954  0.00  0.00     0.041 A 
ATOM     27  C   UNL d   1      11.481   9.318  -4.135  0.00  0.00     0.129 A 
ATOM     28  C   UNL d   1      11.900   6.934  -4.427  0.00  0.00     0.006 A 
ATOM     29  O   UNL d   1      11.043  10.362  -4.923  0.00  0.00    -0.211 OA
ATOM     30  C   UNL d   1      11.864   9.291  -2.797  0.00  0.00     0.057 A 
ATOM     31  N   UNL d   1      10.817   9.873  -6.236  0.00  0.00    -0.131 NA
ATOM     32  C   UNL d   1      12.293   8.050  -2.288  0.00  0.00     0.142 A 
ATOM     33  F   UNL d   1      12.776   7.988  -1.032  0.00  0.00    -0.204 F 
ATOM     34  C   UNL d   1      12.292   6.885  -3.071  0.00  0.00     0.030 A 
ENDBRANCH  22  25
ENDBRANCH  18  19
ENDBRANCH   1  18
TORSDOF 8
