REMARK  8 active torsions:
REMARK  status: ('A' for Active; 'I' for Inactive)
REMARK    1  A    between atoms: C_2  and  C_3 
REMARK    2  A    between atoms: C_3  and  N_4 
REMARK    3  A    between atoms: N_4  and  C_5 
REMARK    4  A    between atoms: N_4  and  C_8 
REMARK    5  A    between atoms: C_5  and  C_6 
REMARK    6  A    between atoms: C_15  and  O_16 
REMARK    7  A    between atoms: O_16  and  S_17 
REMARK    8  A    between atoms: S_17  and  C_20 
ROOT
ATOM      1  C   UNL d   1       8.950   3.608 -13.142  0.00  0.00     0.224 C 
ATOM      2  C   UNL d   1       7.702   2.929 -13.767  0.00  0.00     0.038 C 
ATOM      3  C   UNL d   1       8.047   1.587 -14.411  0.00  0.00     0.028 C 
ATOM      4  C   UNL d   1       9.284   1.640 -15.292  0.00  0.00    -0.024 A 
ATOM      5  C   UNL d   1       9.492   0.605 -16.220  0.00  0.00    -0.004 A 
ATOM      6  C   UNL d   1      10.629   0.609 -17.049  0.00  0.00     0.002 A 
ATOM      7  C   UNL d   1      11.561   1.657 -16.951  0.00  0.00     0.025 A 
ATOM      8  C   UNL d   1      11.361   2.704 -16.036  0.00  0.00     0.109 A 
ATOM      9  C   UNL d   1      10.229   2.700 -15.185  0.00  0.00    -0.001 A 
ATOM     10  C   UNL d   1      10.024   3.862 -14.221  0.00  0.00     0.061 C 
ENDROOT
BRANCH   8  11
ATOM     11  O   UNL d   1      12.276   3.723 -15.957  0.00  0.00    -0.225 OA
BRANCH  11  12
ATOM     12  S   UNL d   1      12.169   4.922 -17.143  0.00  0.00     0.374 S 
ATOM     13  O   UNL d   1      12.537   4.314 -18.432  0.00  0.00    -0.189 OA
ATOM     14  O   UNL d   1      10.884   5.611 -16.964  0.00  0.00    -0.189 OA
BRANCH  12  15
ATOM     15  C   UNL d   1      13.541   6.014 -16.570  0.00  0.00     0.524 C 
ATOM     16  F   UNL d   1      14.000   6.705 -17.614  0.00  0.00    -0.155 F 
ATOM     17  F   UNL d   1      13.082   6.849 -15.639  0.00  0.00    -0.155 F 
ATOM     18  F   UNL d   1      14.522   5.259 -16.081  0.00  0.00    -0.155 F 
ENDBRANCH  12  15
ENDBRANCH  11  12
ENDBRANCH   8  11
BRANCH   1  19
ATOM     19  N   UNL d   1       8.647   4.824 -12.365  0.00  0.00     0.135 N 
BRANCH  19  20
ATOM     20  C   UNL d   1       7.994   4.486 -11.073  0.00  0.00     0.250 C 
BRANCH  20  21
ATOM     21  C   UNL d   1       9.057   4.438  -9.949  0.00  0.00     0.035 C 
ATOM     22  C   UNL d   1       9.564   5.824  -9.538  0.00  0.00     0.002 C 
ENDBRANCH  20  21
ENDBRANCH  19  20
BRANCH  19  23
ATOM     23  C   UNL d   1       7.861   5.796 -13.138  0.00  0.00     0.250 C 
BRANCH  23  24
ATOM     24  C   UNL d   1       7.665   7.133 -12.415  0.00  0.00     0.035 C 
ATOM     25  C   UNL d   1       6.384   7.859 -12.857  0.00  0.00     0.002 C 
ENDBRANCH  23  24
ENDBRANCH  19  23
ENDBRANCH   1  19
TORSDOF 8
