REMARK  5 active torsions:
REMARK  status: ('A' for Active; 'I' for Inactive)
REMARK    1  A    between atoms: C_2  and  C_3 
REMARK       I    between atoms: C_3  and  N_5 
REMARK    2  A    between atoms: N_5  and  C_6 
REMARK    3  A    between atoms: C_10  and  C_11 
REMARK    4  A    between atoms: N_17  and  S_18 
REMARK    5  A    between atoms: S_18  and  C_21 
ROOT
ATOM      1  C   UNL d   1       6.729   0.892 -15.732  0.00  0.00     0.021 A 
ATOM      2  C   UNL d   1       6.937   1.456 -14.448  0.00  0.00     0.002 A 
ATOM      3  C   UNL d   1       7.894   2.465 -14.247  0.00  0.00     0.002 A 
ATOM      4  C   UNL d   1       8.691   2.949 -15.300  0.00  0.00     0.018 A 
ATOM      5  C   UNL d   1       9.704   3.956 -15.393  0.00  0.00     0.021 A 
ATOM      6  C   UNL d   1      10.088   3.992 -16.707  0.00  0.00     0.092 A 
ATOM      7  N   UNL d   1       9.358   3.055 -17.434  0.00  0.00    -0.231 N 
ATOM      8  C   UNL d   1       8.478   2.383 -16.594  0.00  0.00     0.075 A 
ATOM      9  C   UNL d   1       7.510   1.377 -16.808  0.00  0.00     0.020 A 
ENDROOT
BRANCH   1  10
ATOM     10  C   UNL d   1       5.714  -0.155 -15.961  0.00  0.00     0.114 A 
ATOM     11  C   UNL d   1       4.677  -0.631 -15.168  0.00  0.00     0.096 A 
ATOM     12  N   UNL d   1       4.038  -1.612 -15.919  0.00  0.00    -0.062 NA
ATOM     13  C   UNL d   1       4.186  -0.271 -13.803  0.00  0.00     0.054 C 
ATOM     14  C   UNL d   1       4.680  -1.708 -17.077  0.00  0.00     0.752 A 
ATOM     15  N   UNL d   1       5.689  -0.849 -17.182  0.00  0.00    -0.058 NA
BRANCH  14  16
ATOM     16  N   UNL d   1       4.258  -2.668 -18.036  0.00  0.00    -0.023 NA
ATOM     17  C   UNL d   1       4.663  -2.779 -19.316  0.00  0.00     0.272 C 
ATOM     18  O   UNL d   1       5.505  -2.051 -19.843  0.00  0.00    -0.270 OA
BRANCH  17  19
ATOM     19  C   UNL d   1       4.006  -3.902 -20.125  0.00  0.00     0.091 C 
ATOM     20  C   UNL d   1       4.227  -3.773 -21.642  0.00  0.00     0.010 C 
ENDBRANCH  17  19
ENDBRANCH  14  16
ENDBRANCH   1  10
BRANCH   7  21
ATOM     21  S   UNL d   1       9.554   2.784 -19.123  0.00  0.00     0.271 S 
ATOM     22  O   UNL d   1       8.231   2.373 -19.625  0.00  0.00    -0.200 OA
ATOM     23  O   UNL d   1      10.219   3.990 -19.636  0.00  0.00    -0.200 OA
BRANCH  21  24
ATOM     24  C   UNL d   1      10.685   1.400 -19.179  0.00  0.00     0.104 A 
ATOM     25  C   UNL d   1      11.874   1.500 -19.930  0.00  0.00     0.013 A 
ATOM     26  C   UNL d   1      12.771   0.413 -19.961  0.00  0.00     0.001 A 
ATOM     27  C   UNL d   1      12.485  -0.761 -19.237  0.00  0.00     0.000 A 
ATOM     28  C   UNL d   1      11.299  -0.848 -18.484  0.00  0.00     0.001 A 
ATOM     29  C   UNL d   1      10.394   0.225 -18.461  0.00  0.00     0.013 A 
ENDBRANCH  21  24
ENDBRANCH   7  21
TORSDOF 5
