REMARK  4 active torsions:
REMARK  status: ('A' for Active; 'I' for Inactive)
REMARK    1  A    between atoms: O_2  and  C_3 
REMARK    2  A    between atoms: C_8  and  O_9 
REMARK    3  A    between atoms: N_12  and  C_13 
REMARK    4  A    between atoms: N_14  and  C_15 
ROOT
ATOM      1  C   UNL d   1       9.453   6.743 -11.510  0.00  0.00     0.175 C 
ATOM      2  N   UNL d   1       9.303   6.460 -10.275  0.00  0.00    -0.226 NA
ENDROOT
BRANCH   1   3
ATOM      3  N   UNL d   1       8.857   6.065 -12.514  0.00  0.00    -0.327 N 
ATOM      4  C   UNL d   1       9.583   5.131 -13.364  0.00  0.00     0.130 C 
ATOM      5  C   UNL d   1       8.753   3.916 -13.691  0.00  0.00    -0.002 A 
ATOM      6  C   UNL d   1       7.364   3.880 -13.439  0.00  0.00    -0.020 A 
ATOM      7  C   UNL d   1       9.401   2.809 -14.252  0.00  0.00     0.024 A 
ATOM      8  C   UNL d   1       6.656   2.703 -13.754  0.00  0.00     0.022 A 
ATOM      9  C   UNL d   1       6.659   5.081 -12.822  0.00  0.00     0.050 C 
ATOM     10  C   UNL d   1       7.312   1.571 -14.308  0.00  0.00     0.116 A 
ATOM     11  C   UNL d   1       8.695   1.623 -14.566  0.00  0.00     0.116 A 
ATOM     12  C   UNL d   1       7.497   6.379 -12.911  0.00  0.00     0.108 C 
BRANCH  10  13
ATOM     13  O   UNL d   1       6.650   0.404 -14.566  0.00  0.00    -0.326 OA
ATOM     14  C   UNL d   1       5.882  -0.144 -13.503  0.00  0.00     0.181 C 
ENDBRANCH  10  13
BRANCH  11  15
ATOM     15  O   UNL d   1       9.299   0.508 -15.075  0.00  0.00    -0.326 OA
ATOM     16  C   UNL d   1      10.691   0.562 -15.334  0.00  0.00     0.181 C 
ENDBRANCH  11  15
ENDBRANCH   1   3
BRANCH   2  17
ATOM     17  C   UNL d   1       9.936   7.312  -9.383  0.00  0.00     0.083 A 
ATOM     18  C   UNL d   1      10.257   6.819  -8.099  0.00  0.00     0.015 A 
ATOM     19  C   UNL d   1      10.943   7.655  -7.211  0.00  0.00    -0.014 A 
ATOM     20  C   UNL d   1      11.327   8.933  -7.538  0.00  0.00    -0.024 A 
ATOM     21  C   UNL d   1      11.456   7.369  -5.854  0.00  0.00     0.080 C 
ATOM     22  C   UNL d   1      11.059   9.439  -8.809  0.00  0.00    -0.003 A 
ATOM     23  C   UNL d   1      11.987   9.648  -6.390  0.00  0.00     0.038 C 
ATOM     24  C   UNL d   1      10.310   8.655  -9.698  0.00  0.00     0.019 A 
ATOM     25  C   UNL d   1      11.577   8.768  -5.221  0.00  0.00     0.066 C 
ATOM     26  S   UNL d   1      12.650   8.846  -3.749  0.00  0.00    -0.139 SA
ATOM     27  C   UNL d   1      11.764   7.700  -2.682  0.00  0.00     0.069 C 
ATOM     28  C   UNL d   1      11.436   6.363  -3.361  0.00  0.00     0.070 C 
ATOM     29  S   UNL d   1      10.396   6.505  -4.843  0.00  0.00    -0.135 SA
ENDBRANCH   2  17
TORSDOF 4
