REMARK  6 active torsions:
REMARK  status: ('A' for Active; 'I' for Inactive)
REMARK    1  A    between atoms: C_2  and  C_3 
REMARK    2  A    between atoms: N_13  and  C_14 
REMARK    3  A    between atoms: C_14  and  C_15 
REMARK    4  A    between atoms: C_15  and  C_17 
REMARK    5  A    between atoms: C_17  and  N_18 
REMARK    6  A    between atoms: N_21  and  C_22 
ROOT
ATOM      1  C   UNL d   1      10.408   5.868 -17.934  0.00  0.00     0.148 C 
ENDROOT
BRANCH   1   2
ATOM      2  N   UNL d   1       9.860   6.019 -19.310  0.00  0.00    -0.247 N 
ATOM      3  C   UNL d   1       9.127   5.136 -20.045  0.00  0.00     0.348 A 
ATOM      4  N   UNL d   1       8.872   5.685 -21.214  0.00  0.00    -0.209 NA
ATOM      5  O   UNL d   1       8.724   4.018 -19.802  0.00  0.00    -0.245 OA
ATOM      6  C   UNL d   1       9.366   7.037 -21.345  0.00  0.00     0.179 A 
ATOM      7  C   UNL d   1      10.366   7.048 -22.512  0.00  0.00     0.039 C 
ATOM      8  C   UNL d   1      10.064   7.144 -20.000  0.00  0.00     0.265 A 
ATOM      9  O   UNL d   1      10.711   8.127 -19.626  0.00  0.00    -0.269 OA
BRANCH   6  10
ATOM     10  C   UNL d   1       8.214   8.044 -21.429  0.00  0.00     0.006 A 
ATOM     11  C   UNL d   1       7.017   7.837 -20.694  0.00  0.00     0.000 A 
ATOM     12  C   UNL d   1       5.964   8.766 -20.785  0.00  0.00     0.029 A 
ATOM     13  C   UNL d   1       6.091   9.892 -21.615  0.00  0.00     0.140 A 
ATOM     14  C   UNL d   1       7.268  10.090 -22.353  0.00  0.00     0.029 A 
ATOM     15  F   UNL d   1       5.081  10.785 -21.709  0.00  0.00    -0.204 F 
ATOM     16  C   UNL d   1       8.320   9.175 -22.260  0.00  0.00     0.000 A 
ENDBRANCH   6  10
ENDBRANCH   1   2
BRANCH   1  17
ATOM     17  C   UNL d   1      11.677   4.933 -17.861  0.00  0.00     0.208 C 
ATOM     18  O   UNL d   1      12.795   5.784 -17.646  0.00  0.00    -0.219 OA
BRANCH  17  19
ATOM     19  C   UNL d   1      11.692   3.899 -16.682  0.00  0.00     0.285 C 
BRANCH  19  20
ATOM     20  N   UNL d   1      10.861   2.696 -16.852  0.00  0.00     0.144 N 
ATOM     21  C   UNL d   1       9.479   3.050 -17.121  0.00  0.00     0.274 C 
ATOM     22  C   UNL d   1       8.597   1.847 -17.468  0.00  0.00     0.137 C 
ATOM     23  N   UNL d   1       8.651   0.901 -16.358  0.00  0.00    -0.344 N 
ATOM     24  C   UNL d   1      10.001   0.583 -15.883  0.00  0.00     0.137 C 
ATOM     25  C   UNL d   1      10.862   1.849 -15.661  0.00  0.00     0.274 C 
BRANCH  23  26
ATOM     26  C   UNL d   1       7.476   0.515 -15.692  0.00  0.00     0.056 A 
ATOM     27  C   UNL d   1       7.479   0.357 -14.294  0.00  0.00     0.019 A 
ATOM     28  C   UNL d   1       6.327  -0.097 -13.635  0.00  0.00     0.031 A 
ATOM     29  C   UNL d   1       5.159  -0.378 -14.366  0.00  0.00     0.140 A 
ATOM     30  C   UNL d   1       5.147  -0.207 -15.762  0.00  0.00     0.031 A 
ATOM     31  F   UNL d   1       4.040  -0.795 -13.726  0.00  0.00    -0.204 F 
ATOM     32  C   UNL d   1       6.297   0.253 -16.424  0.00  0.00     0.019 A 
ENDBRANCH  23  26
ENDBRANCH  19  20
ENDBRANCH  17  19
ENDBRANCH   1  17
TORSDOF 6
