REMARK  2 active torsions:
REMARK  status: ('A' for Active; 'I' for Inactive)
REMARK    1  A    between atoms: O_2  and  C_3 
REMARK    2  A    between atoms: C_8  and  O_9 
ROOT
ATOM      1  C   UNL d   1      14.300   5.737 -16.944  0.00  0.00     0.116 A 
ATOM      2  C   UNL d   1      14.089   4.375 -17.265  0.00  0.00     0.022 A 
ATOM      3  C   UNL d   1      12.836   3.768 -17.055  0.00  0.00    -0.020 A 
ATOM      4  C   UNL d   1      11.768   4.506 -16.502  0.00  0.00     0.007 A 
ATOM      5  C   UNL d   1      11.969   5.874 -16.218  0.00  0.00     0.024 A 
ATOM      6  C   UNL d   1      13.211   6.495 -16.451  0.00  0.00     0.116 A 
ATOM      7  C   UNL d   1      10.402   3.836 -16.288  0.00  0.00     0.246 C 
ATOM      8  C   UNL d   1       9.818   4.152 -14.886  0.00  0.00     0.064 C 
ATOM      9  C   UNL d   1       8.527   3.415 -14.582  0.00  0.00    -0.022 A 
ATOM     10  C   UNL d   1       7.680   3.873 -13.555  0.00  0.00    -0.009 A 
ATOM     11  C   UNL d   1       6.478   3.197 -13.285  0.00  0.00    -0.022 A 
ATOM     12  C   UNL d   1       5.582   3.668 -12.165  0.00  0.00     0.031 C 
ATOM     13  C   UNL d   1       6.129   2.057 -14.033  0.00  0.00    -0.009 A 
ATOM     14  C   UNL d   1       6.954   1.607 -15.080  0.00  0.00    -0.025 A 
ATOM     15  C   UNL d   1       6.504   0.416 -15.909  0.00  0.00     0.031 C 
ATOM     16  C   UNL d   1       8.165   2.284 -15.351  0.00  0.00     0.003 A 
ATOM     17  C   UNL d   1       9.059   1.857 -16.504  0.00  0.00     0.277 C 
ATOM     18  N   UNL d   1      10.425   2.368 -16.415  0.00  0.00     0.144 N 
ATOM     19  C   UNL d   1      11.160   1.958 -17.604  0.00  0.00     0.256 C 
ATOM     20  C   UNL d   1      12.639   2.302 -17.395  0.00  0.00     0.061 C 
ENDROOT
BRANCH   1  21
ATOM     21  O   UNL d   1      15.526   6.367 -17.063  0.00  0.00    -0.326 OA
ATOM     22  C   UNL d   1      16.628   5.619 -17.545  0.00  0.00     0.181 C 
ENDBRANCH   1  21
BRANCH   6  23
ATOM     23  O   UNL d   1      13.339   7.823 -16.130  0.00  0.00    -0.326 OA
ATOM     24  C   UNL d   1      13.656   8.686 -17.220  0.00  0.00     0.181 C 
ENDBRANCH   6  23
TORSDOF 2
