REMARK  8 active torsions:
REMARK  status: ('A' for Active; 'I' for Inactive)
REMARK    1  A    between atoms: S_2  and  N_5 
REMARK    2  A    between atoms: N_5  and  C_6 
REMARK    3  A    between atoms: C_8  and  O_9 
REMARK    4  A    between atoms: O_9  and  C_10 
REMARK    5  A    between atoms: C_10  and  C_11 
REMARK    6  A    between atoms: C_11  and  N_12 
REMARK    7  A    between atoms: N_12  and  C_13 
REMARK    8  A    between atoms: C_13  and  C_14 
ROOT
ATOM      1  C   UNL d   1       8.855   4.121 -13.537  0.00  0.00     0.106 A 
ATOM      2  C   UNL d   1       9.539   5.002 -12.679  0.00  0.00     0.045 A 
ATOM      3  C   UNL d   1       8.920   5.543 -11.538  0.00  0.00     0.096 A 
ATOM      4  C   UNL d   1       7.565   5.244 -11.283  0.00  0.00     0.025 A 
ATOM      5  C   UNL d   1       6.852   4.392 -12.151  0.00  0.00     0.015 A 
ATOM      6  C   UNL d   1       7.500   3.824 -13.270  0.00  0.00     0.076 A 
ATOM      7 CL   UNL d   1       6.639   2.719 -14.273  0.00  0.00    -0.081 Cl
ENDROOT
BRANCH   3   8
ATOM      8  O   UNL d   1       9.686   6.377 -10.763  0.00  0.00    -0.329 OA
BRANCH   8   9
ATOM      9  C   UNL d   1       9.431   6.436  -9.366  0.00  0.00     0.187 C 
BRANCH   9  10
ATOM     10  C   UNL d   1      10.123   7.691  -8.824  0.00  0.00     0.323 C 
BRANCH  10  11
ATOM     11  N   UNL d   1      10.081   7.644  -7.375  0.00  0.00     0.347 N 
BRANCH  11  12
ATOM     12  C   UNL d   1      10.820   8.754  -6.799  0.00  0.00     0.317 C 
BRANCH  12  13
ATOM     13  C   UNL d   1      11.243   8.495  -5.362  0.00  0.00     0.014 A 
ATOM     14  C   UNL d   1      11.458   7.182  -4.889  0.00  0.00    -0.002 A 
ATOM     15  C   UNL d   1      11.866   6.960  -3.562  0.00  0.00    -0.000 A 
ATOM     16  C   UNL d   1      12.071   8.049  -2.697  0.00  0.00    -0.000 A 
ATOM     17  C   UNL d   1      11.866   9.360  -3.164  0.00  0.00    -0.000 A 
ATOM     18  C   UNL d   1      11.456   9.587  -4.491  0.00  0.00    -0.002 A 
ENDBRANCH  12  13
ENDBRANCH  11  12
ENDBRANCH  10  11
ENDBRANCH   9  10
ENDBRANCH   8   9
ENDBRANCH   3   8
BRANCH   1  19
ATOM     19  N   UNL d   1       9.495   3.519 -14.628  0.00  0.00    -0.161 NA
BRANCH  19  20
ATOM     20  S   UNL d   1      11.113   3.684 -15.238  0.00  0.00     0.266 S 
ATOM     21  C   UNL d   1      11.527   1.975 -15.717  0.00  0.00     0.165 C 
ATOM     22  O   UNL d   1      11.986   4.078 -14.120  0.00  0.00    -0.203 OA
ATOM     23  O   UNL d   1      11.014   4.514 -16.448  0.00  0.00    -0.203 OA
ENDBRANCH  19  20
ENDBRANCH   1  19
TORSDOF 8
