REMARK  7 active torsions:
REMARK  status: ('A' for Active; 'I' for Inactive)
REMARK    1  A    between atoms: C_3  and  S_4 
REMARK    2  A    between atoms: S_4  and  C_5 
REMARK    3  A    between atoms: C_5  and  C_6 
REMARK    4  A    between atoms: C_6  and  C_7 
REMARK    5  A    between atoms: C_7  and  N_8 
REMARK    6  A    between atoms: N_16  and  C_17 
REMARK    7  A    between atoms: C_28  and  C_29 
ROOT
ATOM      1  N   UNL d   1      11.705   3.823 -15.550  0.00  0.00     0.137 N 
ATOM      2  C   UNL d   1      11.812   2.808 -16.610  0.00  0.00     0.250 C 
ATOM      3  C   UNL d   1      11.238   1.474 -16.129  0.00  0.00     0.035 C 
ATOM      4  C   UNL d   1       9.761   1.606 -15.710  0.00  0.00     0.008 C 
ATOM      5  C   UNL d   1       9.686   2.739 -14.655  0.00  0.00     0.035 C 
ATOM      6  C   UNL d   1      10.302   4.043 -15.184  0.00  0.00     0.250 C 
ATOM      7  C   UNL d   1       8.893   1.906 -16.967  0.00  0.00     0.024 C 
ATOM      8  C   UNL d   1       7.404   1.944 -16.630  0.00  0.00     0.102 C 
ATOM      9  N   UNL d   1       7.022   0.703 -15.975  0.00  0.00    -0.346 N 
ATOM     10  C   UNL d   1       7.770   0.284 -14.796  0.00  0.00     0.102 C 
ATOM     11  C   UNL d   1       9.278   0.270 -15.098  0.00  0.00     0.024 C 
ENDROOT
BRANCH   1  12
ATOM     12  C   UNL d   1      12.253   5.091 -16.021  0.00  0.00     0.251 C 
BRANCH  12  13
ATOM     13  C   UNL d   1      13.778   5.023 -16.207  0.00  0.00     0.047 C 
BRANCH  13  14
ATOM     14  C   UNL d   1      14.357   6.324 -16.783  0.00  0.00     0.067 C 
BRANCH  14  15
ATOM     15  S   UNL d   1      15.122   6.039 -18.411  0.00  0.00    -0.075 SA
BRANCH  15  16
ATOM     16  C   UNL d   1      16.753   6.574 -18.029  0.00  0.00     0.193 A 
ATOM     17  N   UNL d   1      17.373   7.539 -18.734  0.00  0.00    -0.289 N 
ATOM     18  C   UNL d   1      16.889   8.286 -19.881  0.00  0.00     0.134 C 
ATOM     19  C   UNL d   1      18.559   7.630 -18.094  0.00  0.00     0.167 A 
ATOM     20  N   UNL d   1      18.660   6.786 -17.061  0.00  0.00    -0.128 NA
ATOM     21  N   UNL d   1      17.482   6.083 -17.027  0.00  0.00    -0.122 NA
BRANCH  19  22
ATOM     22  C   UNL d   1      19.628   8.546 -18.460  0.00  0.00     0.036 A 
ATOM     23  C   UNL d   1      20.672   8.105 -19.295  0.00  0.00     0.003 A 
ATOM     24  C   UNL d   1      21.717   8.985 -19.638  0.00  0.00     0.000 A 
ATOM     25  C   UNL d   1      21.718  10.304 -19.142  0.00  0.00     0.000 A 
ATOM     26  C   UNL d   1      20.675  10.744 -18.303  0.00  0.00     0.000 A 
ATOM     27  C   UNL d   1      19.631   9.864 -17.960  0.00  0.00     0.003 A 
ENDBRANCH  19  22
ENDBRANCH  15  16
ENDBRANCH  14  15
ENDBRANCH  13  14
ENDBRANCH  12  13
ENDBRANCH   1  12
BRANCH   9  28
ATOM     28  C   UNL d   1       5.952  -0.058 -16.466  0.00  0.00     0.084 A 
ATOM     29  C   UNL d   1       5.054  -0.702 -15.577  0.00  0.00     0.155 A 
ATOM     30  C   UNL d   1       4.012  -1.489 -16.086  0.00  0.00     0.031 A 
ATOM     31  F   UNL d   1       5.174  -0.562 -14.232  0.00  0.00    -0.203 F 
ATOM     32  C   UNL d   1       3.833  -1.625 -17.474  0.00  0.00     0.002 A 
ATOM     33  C   UNL d   1       4.699  -0.967 -18.365  0.00  0.00     0.002 A 
ATOM     34  C   UNL d   1       5.759  -0.196 -17.861  0.00  0.00     0.019 A 
ENDBRANCH   9  28
TORSDOF 7
