REMARK  1 active torsions:
REMARK  status: ('A' for Active; 'I' for Inactive)
REMARK    1  A    between atoms: O_2  and  C_3 
ROOT
ATOM      1  C   UNL d   1       6.240   3.532 -13.057  0.00  0.00     0.094 A 
ATOM      2  C   UNL d   1       7.531   3.738 -13.595  0.00  0.00     0.024 A 
ATOM      3  C   UNL d   1       8.177   2.707 -14.304  0.00  0.00    -0.002 A 
ATOM      4  C   UNL d   1       7.556   1.453 -14.502  0.00  0.00    -0.022 A 
ATOM      5  C   UNL d   1       6.258   1.238 -13.955  0.00  0.00    -0.024 A 
ATOM      6  C   UNL d   1       5.624   2.280 -13.240  0.00  0.00     0.020 A 
ATOM      7  C   UNL d   1       5.503  -0.080 -14.091  0.00  0.00     0.028 C 
ATOM      8  C   UNL d   1       4.411  -0.020 -15.175  0.00  0.00     0.040 C 
ATOM      9  C   UNL d   1       4.172  -1.353 -15.898  0.00  0.00     0.251 C 
ATOM     10  N   UNL d   1       5.313  -1.683 -16.747  0.00  0.00     0.139 N 
ATOM     11  C   UNL d   1       5.352  -3.124 -16.985  0.00  0.00     0.285 C 
ATOM     12  C   UNL d   1       5.293  -0.968 -18.024  0.00  0.00     0.251 C 
ATOM     13  C   UNL d   1       6.726  -0.553 -18.404  0.00  0.00     0.040 C 
ATOM     14  C   UNL d   1       7.060   0.881 -17.956  0.00  0.00     0.028 C 
ATOM     15  C   UNL d   1       8.547   1.099 -17.719  0.00  0.00    -0.026 A 
ATOM     16  C   UNL d   1       9.349   1.541 -18.791  0.00  0.00    -0.005 A 
ATOM     17  C   UNL d   1      10.730   1.748 -18.612  0.00  0.00    -0.000 A 
ATOM     18  C   UNL d   1      11.319   1.511 -17.356  0.00  0.00    -0.000 A 
ATOM     19  C   UNL d   1      10.527   1.065 -16.282  0.00  0.00    -0.004 A 
ATOM     20  C   UNL d   1       9.139   0.861 -16.449  0.00  0.00    -0.022 A 
ATOM     21  C   UNL d   1       8.319   0.365 -15.261  0.00  0.00     0.052 C 
ENDROOT
BRANCH   1  22
ATOM     22  O   UNL d   1       5.529   4.481 -12.357  0.00  0.00    -0.328 OA
ATOM     23  C   UNL d   1       6.204   5.673 -11.970  0.00  0.00     0.181 C 
ENDBRANCH   1  22
TORSDOF 1
