REMARK  1 active torsions:
REMARK  status: ('A' for Active; 'I' for Inactive)
REMARK    1  A    between atoms: C_2  and  C_3 
ROOT
ATOM      1  O   UNL d   1       9.447   6.393 -10.719  0.00  0.00    -0.218 OA
ATOM      2  C   UNL d   1       8.947   6.098  -9.433  0.00  0.00     0.218 C 
ENDROOT
BRANCH   2   3
ATOM      3  C   UNL d   1       9.330   7.229  -8.467  0.00  0.00     0.218 C 
ATOM      4  O   UNL d   1       8.660   7.055  -7.241  0.00  0.00    -0.218 OA
ENDBRANCH   2   3
TORSDOF 1
