REMARK  8 active torsions:
REMARK  status: ('A' for Active; 'I' for Inactive)
REMARK    1  A    between atoms: O_2  and  C_3 
REMARK    2  A    between atoms: C_9  and  C_10 
REMARK       I    between atoms: C_10  and  N_12 
REMARK    3  A    between atoms: N_12  and  C_13 
REMARK    4  A    between atoms: C_13  and  C_14 
REMARK    5  A    between atoms: C_15  and  C_16 
REMARK    6  A    between atoms: C_16  and  N_17 
REMARK    7  A    between atoms: N_20  and  C_21 
REMARK    8  A    between atoms: C_26  and  O_27 
ROOT
ATOM      1  C   UNL d   1       8.924   4.512 -12.265  0.00  0.00    -0.003 C 
ATOM      2  C   UNL d   1       9.501   3.682 -13.149  0.00  0.00     0.006 C 
ENDROOT
BRANCH   1   3
ATOM      3  C   UNL d   1       9.100   4.429 -10.765  0.00  0.00     0.155 C 
BRANCH   3   4
ATOM      4  N   UNL d   1       9.521   5.705 -10.222  0.00  0.00    -0.229 NA
ATOM      5  C   UNL d   1       9.514   6.006  -8.913  0.00  0.00     0.277 C 
ATOM      6  O   UNL d   1       9.070   5.263  -8.044  0.00  0.00    -0.266 OA
BRANCH   5   7
ATOM      7  C   UNL d   1      10.193   7.295  -8.613  0.00  0.00     0.078 A 
ATOM      8  C   UNL d   1      10.409   8.333  -9.487  0.00  0.00     0.104 A 
ATOM      9  N   UNL d   1      11.072   9.326  -8.804  0.00  0.00    -0.244 NA
ATOM     10  C   UNL d   1      11.242   8.997  -7.479  0.00  0.00     0.082 A 
ATOM     11  C   UNL d   1      11.819   9.712  -6.426  0.00  0.00     0.021 A 
ATOM     12  C   UNL d   1      10.700   7.687  -7.311  0.00  0.00     0.026 A 
ATOM     13  C   UNL d   1      11.902   9.138  -5.154  0.00  0.00     0.026 A 
ATOM     14  C   UNL d   1      11.426   7.820  -4.932  0.00  0.00     0.094 A 
ATOM     15  C   UNL d   1      10.812   7.126  -6.004  0.00  0.00     0.026 A 
BRANCH  14  16
ATOM     16  O   UNL d   1      11.527   7.164  -3.721  0.00  0.00    -0.328 OA
ATOM     17  C   UNL d   1      12.035   7.904  -2.609  0.00  0.00     0.181 C 
ENDBRANCH  14  16
ENDBRANCH   5   7
ENDBRANCH   3   4
ENDBRANCH   1   3
BRANCH   2  18
ATOM     18  C   UNL d   1       9.282   3.758 -14.653  0.00  0.00     0.276 C 
BRANCH  18  19
ATOM     19  N   UNL d   1       9.283   2.447 -15.297  0.00  0.00     0.145 N 
ATOM     20  C   UNL d   1       9.027   2.591 -16.738  0.00  0.00     0.275 C 
ATOM     21  C   UNL d   1       9.079   1.225 -17.459  0.00  0.00     0.137 C 
ATOM     22  N   UNL d   1       8.171   0.287 -16.810  0.00  0.00    -0.343 N 
ATOM     23  C   UNL d   1       8.361   0.159 -15.370  0.00  0.00     0.137 C 
ATOM     24  C   UNL d   1       8.276   1.547 -14.713  0.00  0.00     0.275 C 
BRANCH  22  25
ATOM     25  C   UNL d   1       7.155  -0.389 -17.516  0.00  0.00     0.079 A 
ATOM     26  C   UNL d   1       5.836  -0.551 -16.996  0.00  0.00     0.110 A 
ATOM     27  C   UNL d   1       4.882  -1.282 -17.733  0.00  0.00     0.026 A 
ATOM     28  C   UNL d   1       5.197  -1.825 -18.994  0.00  0.00     0.002 A 
ATOM     29  C   UNL d   1       6.490  -1.649 -19.517  0.00  0.00     0.002 A 
ATOM     30  C   UNL d   1       7.458  -0.945 -18.783  0.00  0.00     0.019 A 
BRANCH  26  31
ATOM     31  O   UNL d   1       5.517   0.065 -15.797  0.00  0.00    -0.327 OA
ATOM     32  C   UNL d   1       4.477  -0.502 -15.015  0.00  0.00     0.181 C 
ENDBRANCH  26  31
ENDBRANCH  22  25
ENDBRANCH  18  19
ENDBRANCH   2  18
TORSDOF 8
