REMARK  8 active torsions:
REMARK  status: ('A' for Active; 'I' for Inactive)
REMARK    1  A    between atoms: S_2  and  C_4 
REMARK    2  A    between atoms: S_2  and  N_10 
REMARK    3  A    between atoms: C_14  and  N_15 
REMARK    4  A    between atoms: N_18  and  C_19 
REMARK    5  A    between atoms: C_19  and  C_20 
REMARK    6  A    between atoms: C_20  and  C_21 
REMARK    7  A    between atoms: C_21  and  O_22 
REMARK    8  A    between atoms: O_22  and  C_23 
ROOT
ATOM      1  N   UNL d   1       9.558   5.768 -10.192  0.00  0.00    -0.344 N 
ATOM      2  C   UNL d   1       9.245   4.380 -10.412  0.00  0.00     0.137 C 
ATOM      3  C   UNL d   1       8.282   4.291 -11.597  0.00  0.00     0.274 C 
ATOM      4  N   UNL d   1       8.900   4.898 -12.766  0.00  0.00     0.141 N 
ATOM      5  C   UNL d   1       9.055   6.315 -12.489  0.00  0.00     0.274 C 
ATOM      6  C   UNL d   1      10.011   6.482 -11.341  0.00  0.00     0.137 C 
ENDROOT
BRANCH   1   7
ATOM      7  C   UNL d   1       9.477   6.370  -8.946  0.00  0.00     0.058 A 
ATOM      8  C   UNL d   1      10.375   7.371  -8.555  0.00  0.00     0.034 A 
ATOM      9  C   UNL d   1      11.542   7.978  -9.110  0.00  0.00     0.023 A 
ATOM     10  C   UNL d   1      10.163   7.955  -7.279  0.00  0.00     0.076 A 
ATOM     11  C   UNL d   1      12.025   8.809  -8.161  0.00  0.00     0.092 A 
ATOM     12  N   UNL d   1      11.182   8.851  -7.070  0.00  0.00    -0.231 N 
ATOM     13  C   UNL d   1       9.133   7.558  -6.445  0.00  0.00     0.018 A 
ATOM     14  C   UNL d   1       8.265   6.570  -6.851  0.00  0.00     0.003 A 
ATOM     15  C   UNL d   1       8.437   5.981  -8.090  0.00  0.00     0.017 A 
BRANCH  12  16
ATOM     16  S   UNL d   1      11.512   9.789  -5.662  0.00  0.00     0.271 S 
ATOM     17  O   UNL d   1      10.260  10.351  -5.148  0.00  0.00    -0.200 OA
ATOM     18  O   UNL d   1      12.650  10.619  -6.102  0.00  0.00    -0.200 OA
BRANCH  16  19
ATOM     19  C   UNL d   1      11.973   8.624  -4.402  0.00  0.00     0.104 A 
ATOM     20  C   UNL d   1      12.320   9.069  -3.105  0.00  0.00     0.013 A 
ATOM     21  C   UNL d   1      12.643   8.134  -2.096  0.00  0.00     0.001 A 
ATOM     22  C   UNL d   1      12.609   6.763  -2.380  0.00  0.00     0.000 A 
ATOM     23  C   UNL d   1      12.231   6.358  -3.655  0.00  0.00     0.001 A 
ATOM     24  C   UNL d   1      11.859   7.249  -4.654  0.00  0.00     0.013 A 
ENDBRANCH  16  19
ENDBRANCH  12  16
ENDBRANCH   1   7
BRANCH   4  25
ATOM     25  C   UNL d   1       7.986   4.761 -13.894  0.00  0.00     0.253 C 
BRANCH  25  26
ATOM     26  C   UNL d   1       8.033   3.330 -14.480  0.00  0.00     0.068 C 
BRANCH  26  27
ATOM     27  C   UNL d   1       9.172   3.163 -15.527  0.00  0.00     0.151 C 
BRANCH  27  28
ATOM     28  O   UNL d   1       9.416   1.793 -15.833  0.00  0.00    -0.331 OA
BRANCH  28  29
ATOM     29  C   UNL d   1       8.512   1.115 -16.632  0.00  0.00     0.096 A 
ATOM     30  C   UNL d   1       8.982  -0.079 -17.237  0.00  0.00     0.049 A 
ATOM     31  C   UNL d   1       8.105  -0.805 -18.065  0.00  0.00     0.102 A 
ATOM     32  C   UNL d   1       6.759  -0.426 -18.304  0.00  0.00     0.025 A 
ATOM     33  O   UNL d   1       8.374  -1.955 -18.769  0.00  0.00    -0.305 OA
ATOM     34  C   UNL d   1       6.308   0.759 -17.678  0.00  0.00     0.004 A 
ATOM     35  C   UNL d   1       6.195  -1.401 -19.182  0.00  0.00     0.029 A 
ATOM     36  C   UNL d   1       7.167   1.550 -16.881  0.00  0.00     0.024 A 
ATOM     37  C   UNL d   1       7.213  -2.286 -19.416  0.00  0.00     0.123 A 
ENDBRANCH  28  29
ENDBRANCH  27  28
ENDBRANCH  26  27
ENDBRANCH  25  26
ENDBRANCH   4  25
TORSDOF 8
