REMARK  9 active torsions:
REMARK  status: ('A' for Active; 'I' for Inactive)
REMARK    1  A    between atoms: O_2  and  C_3 
REMARK    2  A    between atoms: C_8  and  C_9 
REMARK    3  A    between atoms: C_12  and  S_13 
REMARK    4  A    between atoms: S_13  and  C_14 
REMARK    5  A    between atoms: C_14  and  C_15 
REMARK    6  A    between atoms: C_15  and  C_16 
REMARK    7  A    between atoms: C_16  and  N_17 
REMARK    8  A    between atoms: C_22  and  C_23 
REMARK    9  A    between atoms: C_26  and  C_27 
ROOT
ATOM      1  C   UNL d   1      13.450   3.996 -17.189  0.00  0.00     0.251 C 
ENDROOT
BRANCH   1   2
ATOM      2  C   UNL d   1      12.282   3.401 -18.003  0.00  0.00     0.047 C 
BRANCH   2   3
ATOM      3  C   UNL d   1      11.349   2.535 -17.150  0.00  0.00     0.067 C 
BRANCH   3   4
ATOM      4  S   UNL d   1      10.085   1.709 -18.160  0.00  0.00    -0.075 SA
BRANCH   4   5
ATOM      5  C   UNL d   1       9.103   1.032 -16.858  0.00  0.00     0.193 A 
ATOM      6  N   UNL d   1       9.544   0.856 -15.612  0.00  0.00    -0.122 NA
ATOM      7  N   UNL d   1       8.467   0.389 -14.906  0.00  0.00    -0.128 NA
ATOM      8  C   UNL d   1       7.460   0.288 -15.783  0.00  0.00     0.170 A 
ATOM      9  N   UNL d   1       7.817   0.665 -17.032  0.00  0.00    -0.289 N 
ATOM     10  C   UNL d   1       7.024   0.697 -18.255  0.00  0.00     0.134 C 
BRANCH   8  11
ATOM     11  C   UNL d   1       6.137  -0.175 -15.383  0.00  0.00     0.077 A 
ATOM     12  C   UNL d   1       5.479   0.392 -14.271  0.00  0.00     0.181 A 
ATOM     13  N   UNL d   1       4.253  -0.014 -13.856  0.00  0.00    -0.221 NA
ATOM     14  C   UNL d   1       3.631  -0.975 -14.569  0.00  0.00     0.101 A 
ATOM     15  C   UNL d   1       4.202  -1.603 -15.690  0.00  0.00     0.021 A 
ATOM     16  C   UNL d   1       5.482  -1.202 -16.099  0.00  0.00     0.008 A 
BRANCH  12  17
ATOM     17  O   UNL d   1       6.081   1.439 -13.603  0.00  0.00    -0.312 OA
ATOM     18  C   UNL d   1       5.404   2.032 -12.504  0.00  0.00     0.183 C 
ENDBRANCH  12  17
ENDBRANCH   8  11
ENDBRANCH   4   5
ENDBRANCH   3   4
ENDBRANCH   2   3
ENDBRANCH   1   2
BRANCH   1  19
ATOM     19  N   UNL d   1      14.238   4.908 -18.010  0.00  0.00     0.137 N 
ATOM     20  C   UNL d   1      13.585   6.202 -18.122  0.00  0.00     0.251 C 
ATOM     21  C   UNL d   1      14.659   7.100 -18.695  0.00  0.00     0.037 A 
ATOM     22  C   UNL d   1      15.958   6.472 -18.249  0.00  0.00     0.038 C 
ATOM     23  C   UNL d   1      14.472   7.749 -20.058  0.00  0.00     0.024 A 
ATOM     24  C   UNL d   1      14.482   8.602 -18.811  0.00  0.00     0.007 A 
ATOM     25  C   UNL d   1      15.536   5.236 -17.441  0.00  0.00     0.250 C 
BRANCH  23  26
ATOM     26  C   UNL d   1      13.213   7.479 -20.839  0.00  0.00    -0.022 A 
ATOM     27  C   UNL d   1      12.096   8.330 -20.713  0.00  0.00    -0.004 A 
ATOM     28  C   UNL d   1      10.892   8.051 -21.380  0.00  0.00     0.004 A 
ATOM     29  C   UNL d   1      10.788   6.908 -22.199  0.00  0.00     0.071 A 
ATOM     30  C   UNL d   1      11.899   6.051 -22.330  0.00  0.00     0.004 A 
ATOM     31  C   UNL d   1      13.103   6.330 -21.651  0.00  0.00    -0.004 A 
BRANCH  29  32
ATOM     32  C   UNL d   1       9.489   6.647 -22.945  0.00  0.00     0.419 C 
ATOM     33  F   UNL d   1       8.445   6.790 -22.128  0.00  0.00    -0.166 F 
ATOM     34  F   UNL d   1       9.379   7.529 -23.938  0.00  0.00    -0.166 F 
ATOM     35  F   UNL d   1       9.458   5.417 -23.461  0.00  0.00    -0.166 F 
ENDBRANCH  29  32
ENDBRANCH  23  26
ENDBRANCH   1  19
TORSDOF 9
