REMARK  4 active torsions:
REMARK  status: ('A' for Active; 'I' for Inactive)
REMARK    1  A    between atoms: SI_2  and  C_5 
REMARK    2  A    between atoms: C_10  and  C_11 
REMARK    3  A    between atoms: C_11  and  N_12 
REMARK    4  A    between atoms: N_15  and  C_16 
ROOT
ATOM      1  C   UNL d   1       8.031   5.879 -11.873  0.00  0.00     0.280 C 
ENDROOT
BRANCH   1   2
ATOM      2  C   UNL d   1       7.929   4.701 -12.791  0.00  0.00     0.050 A 
ATOM      3  C   UNL d   1       8.906   4.055 -13.503  0.00  0.00     0.082 A 
ATOM      4  C   UNL d   1      10.314   4.184 -13.631  0.00  0.00     0.019 A 
ATOM      5  N   UNL d   1       8.267   3.050 -14.261  0.00  0.00    -0.229 N 
ATOM      6  C   UNL d   1      11.000   3.345 -14.477  0.00  0.00     0.003 A 
ATOM      7  C   UNL d   1      10.310   2.349 -15.211  0.00  0.00     0.021 A 
ATOM      8  C   UNL d   1       8.942   2.202 -15.095  0.00  0.00     0.100 A 
ATOM      9  N   UNL d   1       6.910   3.070 -14.036  0.00  0.00    -0.164 NA
ATOM     10  C   UNL d   1       6.737   4.040 -13.168  0.00  0.00     0.120 A 
BRANCH   8  11
ATOM     11 SI   UNL d   1       8.025   0.866 -16.073  0.00  0.00     0.000 Si
ATOM     12  C   UNL d   1       6.763  -0.017 -14.961  0.00  0.00     0.000 C 
ATOM     13  C   UNL d   1       9.289  -0.385 -16.747  0.00  0.00     0.000 C 
ATOM     14  C   UNL d   1       7.124   1.645 -17.543  0.00  0.00     0.000 C 
ENDBRANCH   8  11
ENDBRANCH   1   2
BRANCH   1  15
ATOM     15  N   UNL d   1       9.174   5.956 -10.965  0.00  0.00     0.146 N 
ATOM     16  C   UNL d   1       9.704   7.323 -10.910  0.00  0.00     0.275 C 
ATOM     17  C   UNL d   1      10.909   7.407  -9.967  0.00  0.00     0.137 C 
ATOM     18  N   UNL d   1      10.533   6.920  -8.640  0.00  0.00    -0.344 N 
ATOM     19  C   UNL d   1       9.902   5.598  -8.623  0.00  0.00     0.137 C 
ATOM     20  C   UNL d   1       8.742   5.551  -9.621  0.00  0.00     0.275 C 
BRANCH  18  21
ATOM     21  C   UNL d   1      10.778   7.651  -7.465  0.00  0.00     0.056 A 
ATOM     22  C   UNL d   1      10.935   6.988  -6.221  0.00  0.00     0.018 A 
ATOM     23  C   UNL d   1      11.149   7.712  -5.042  0.00  0.00     0.013 A 
ATOM     24  C   UNL d   1      11.227   9.112  -5.073  0.00  0.00     0.058 A 
ATOM     25  C   UNL d   1      11.097   9.792  -6.297  0.00  0.00     0.013 A 
ATOM     26 CL   UNL d   1      11.463   9.968  -3.604  0.00  0.00    -0.082 Cl
ATOM     27  C   UNL d   1      10.868   9.068  -7.484  0.00  0.00     0.018 A 
ENDBRANCH  18  21
ENDBRANCH   1  15
TORSDOF 4
