REMARK  4 active torsions:
REMARK  status: ('A' for Active; 'I' for Inactive)
REMARK       I    between atoms: N_7  and  C_8 
REMARK    1  A    between atoms: C_8  and  C_10 
REMARK    2  A    between atoms: C_10  and  N_11 
REMARK    3  A    between atoms: N_14  and  C_15 
REMARK    4  A    between atoms: C_15  and  C_16 
ROOT
ATOM      1  C   UNL d   1      11.770  -0.740 -18.612  0.00  0.00     0.005 C 
ATOM      2  C   UNL d   1      10.960   0.488 -18.223  0.00  0.00     0.026 C 
ATOM      3  C   UNL d   1      10.302   0.270 -16.859  0.00  0.00     0.025 C 
ATOM      4  C   UNL d   1       9.619   1.532 -16.300  0.00  0.00     0.071 C 
ATOM      5  C   UNL d   1       8.421   1.868 -17.222  0.00  0.00     0.023 C 
ATOM      6  C   UNL d   1       9.138   1.150 -14.869  0.00  0.00     0.023 C 
ATOM      7  N   UNL d   1      10.595   2.668 -16.267  0.00  0.00    -0.301 N 
ATOM      8  C   UNL d   1      10.615   3.529 -15.211  0.00  0.00     0.271 C 
ATOM      9  O   UNL d   1      11.665   3.741 -14.620  0.00  0.00    -0.270 OA
ATOM     10  C   UNL d   1      11.622   2.776 -17.277  0.00  0.00     0.058 A 
ATOM     11  C   UNL d   1      12.481   3.918 -17.337  0.00  0.00     0.017 A 
ATOM     12  C   UNL d   1      13.474   4.047 -18.311  0.00  0.00     0.002 A 
ATOM     13  C   UNL d   1      13.621   3.048 -19.278  0.00  0.00    -0.000 A 
ATOM     14  C   UNL d   1      12.787   1.919 -19.251  0.00  0.00    -0.003 A 
ATOM     15  C   UNL d   1      11.806   1.756 -18.242  0.00  0.00    -0.007 A 
ENDROOT
BRANCH   8  16
ATOM     16  C   UNL d   1       9.304   4.232 -14.757  0.00  0.00     0.337 C 
BRANCH  16  17
ATOM     17  N   UNL d   1       9.040   4.211 -13.297  0.00  0.00     0.151 N 
ATOM     18  C   UNL d   1      10.078   4.978 -12.545  0.00  0.00     0.286 C 
ATOM     19  C   UNL d   1       9.812   4.958 -11.065  0.00  0.00     0.286 C 
ATOM     20  N   UNL d   1       8.582   5.588 -10.745  0.00  0.00     0.146 N 
ATOM     21  C   UNL d   1       7.481   4.821 -11.435  0.00  0.00     0.286 C 
ATOM     22  C   UNL d   1       7.731   4.765 -12.960  0.00  0.00     0.286 C 
BRANCH  20  23
ATOM     23  C   UNL d   1       8.325   5.685  -9.306  0.00  0.00     0.277 C 
BRANCH  23  24
ATOM     24  C   UNL d   1       9.248   6.680  -8.595  0.00  0.00     0.011 A 
ATOM     25  C   UNL d   1      10.249   7.425  -9.278  0.00  0.00    -0.002 A 
ATOM     26  C   UNL d   1      11.113   8.278  -8.596  0.00  0.00     0.011 A 
ATOM     27  C   UNL d   1      10.918   8.509  -7.221  0.00  0.00     0.058 A 
ATOM     28  C   UNL d   1       9.878   7.847  -6.538  0.00  0.00     0.011 A 
ATOM     29 CL   UNL d   1      11.921   9.641  -6.388  0.00  0.00    -0.082 Cl
ATOM     30  C   UNL d   1       9.057   6.923  -7.216  0.00  0.00    -0.002 A 
ENDBRANCH  23  24
ENDBRANCH  20  23
ENDBRANCH  16  17
ENDBRANCH   8  16
TORSDOF 4
