REMARK  6 active torsions:
REMARK  status: ('A' for Active; 'I' for Inactive)
REMARK    1  A    between atoms: N_4  and  C_5 
REMARK    2  A    between atoms: C_5  and  C_6 
REMARK    3  A    between atoms: C_6  and  O_7 
REMARK    4  A    between atoms: O_7  and  C_8 
REMARK    5  A    between atoms: C_13  and  C_14 
REMARK    6  A    between atoms: C_14  and  C_15 
ROOT
ATOM      1  C   UNL d   1       8.972   6.176 -11.640  0.00  0.00     0.090 A 
ATOM      2  C   UNL d   1       7.809   6.223 -12.447  0.00  0.00     0.024 A 
ATOM      3  C   UNL d   1       7.269   7.466 -12.835  0.00  0.00     0.002 A 
ATOM      4  C   UNL d   1       7.910   8.639 -12.438  0.00  0.00    -0.000 A 
ATOM      5  C   UNL d   1       9.060   8.600 -11.656  0.00  0.00    -0.002 A 
ATOM      6  C   UNL d   1       9.595   7.380 -11.235  0.00  0.00     0.004 A 
ENDROOT
BRANCH   1   7
ATOM      7  O   UNL d   1       9.515   4.997 -11.200  0.00  0.00    -0.329 OA
BRANCH   7   8
ATOM      8  C   UNL d   1       9.433   3.892 -12.080  0.00  0.00     0.184 C 
BRANCH   8   9
ATOM      9  C   UNL d   1      10.199   4.136 -13.397  0.00  0.00     0.283 C 
BRANCH   9  10
ATOM     10  N   UNL d   1      10.469   2.946 -14.192  0.00  0.00     0.145 N 
ATOM     11  C   UNL d   1       9.247   2.259 -14.582  0.00  0.00     0.280 C 
ATOM     12  C   UNL d   1       9.516   1.021 -15.457  0.00  0.00     0.149 C 
ATOM     13  C   UNL d   1       8.204   0.384 -15.927  0.00  0.00     0.034 C 
ATOM     14  O   UNL d   1      10.267   1.416 -16.601  0.00  0.00    -0.352 OA
ATOM     15  C   UNL d   1      11.499   2.047 -16.269  0.00  0.00     0.178 C 
ATOM     16  C   UNL d   1      11.232   3.280 -15.387  0.00  0.00     0.282 C 
ENDBRANCH   9  10
ENDBRANCH   8   9
ENDBRANCH   7   8
ENDBRANCH   1   7
BRANCH   6  17
ATOM     17  C   UNL d   1      10.841   7.403 -10.375  0.00  0.00     0.055 C 
BRANCH  17  18
ATOM     18  C   UNL d   1      10.598   7.814  -8.944  0.00  0.00    -0.018 A 
ATOM     19  C   UNL d   1      11.463   8.741  -8.326  0.00  0.00    -0.004 A 
ATOM     20  C   UNL d   1      11.237   9.130  -6.993  0.00  0.00    -0.000 A 
ATOM     21  C   UNL d   1      10.153   8.584  -6.284  0.00  0.00    -0.000 A 
ATOM     22  C   UNL d   1       9.292   7.654  -6.898  0.00  0.00    -0.000 A 
ATOM     23  C   UNL d   1       9.518   7.264  -8.227  0.00  0.00    -0.004 A 
ENDBRANCH  17  18
ENDBRANCH   6  17
TORSDOF 6
