REMARK  4 active torsions:
REMARK  status: ('A' for Active; 'I' for Inactive)
REMARK    1  A    between atoms: C_4  and  O_5 
REMARK    2  A    between atoms: O_5  and  C_6 
REMARK    3  A    between atoms: C_6  and  C_8 
REMARK    4  A    between atoms: C_8  and  C_10 
ROOT
ATOM      1  O   UNL d   1      10.289   7.215  -8.254  0.00  0.00    -0.302 OA
ENDROOT
BRANCH   1   2
ATOM      2  C   UNL d   1       9.639   7.648  -7.085  0.00  0.00     0.124 C 
ATOM      3  C   UNL d   1      10.090   6.905  -5.842  0.00  0.00     0.030 C 
ATOM      4  C   UNL d   1      11.512   7.183  -5.373  0.00  0.00     0.002 C 
ATOM      5  C   UNL d   1      11.812   6.584  -4.018  0.00  0.00     0.000 C 
ATOM      6  C   UNL d   1      11.808   8.652  -5.259  0.00  0.00     0.000 C 
ATOM      7  C   UNL d   1      11.503   9.332  -6.593  0.00  0.00     0.002 C 
ATOM      8  C   UNL d   1      10.021   9.104  -6.962  0.00  0.00     0.030 C 
ATOM      9  C   UNL d   1      12.464   8.887  -7.717  0.00  0.00     0.000 C 
ATOM     10  C   UNL d   1      11.707  10.810  -6.320  0.00  0.00     0.000 C 
ENDBRANCH   1   2
BRANCH   1  11
ATOM     11  C   UNL d   1       9.788   6.243  -9.015  0.00  0.00     0.307 C 
ATOM     12  O   UNL d   1       9.329   5.169  -8.598  0.00  0.00    -0.261 OA
BRANCH  11  13
ATOM     13  C   UNL d   1       9.846   6.654 -10.489  0.00  0.00     0.260 C 
ATOM     14  O   UNL d   1       9.458   7.998 -10.632  0.00  0.00    -0.208 OA
BRANCH  13  15
ATOM     15  C   UNL d   1       9.045   5.755 -11.404  0.00  0.00     0.018 A 
ATOM     16  C   UNL d   1       7.678   5.543 -11.155  0.00  0.00    -0.001 A 
ATOM     17  C   UNL d   1       6.920   4.692 -11.975  0.00  0.00    -0.000 A 
ATOM     18  C   UNL d   1       7.528   4.067 -13.097  0.00  0.00    -0.000 A 
ATOM     19  C   UNL d   1       8.885   4.301 -13.364  0.00  0.00    -0.000 A 
ATOM     20  C   UNL d   1       9.638   5.138 -12.529  0.00  0.00    -0.001 A 
ENDBRANCH  13  15
ENDBRANCH  11  13
ENDBRANCH   1  11
TORSDOF 4
