REMARK  3 active torsions:
REMARK  status: ('A' for Active; 'I' for Inactive)
REMARK    1  A    between atoms: C_3  and  C_4 
REMARK    2  A    between atoms: N_15  and  C_16 
REMARK    3  A    between atoms: C_16  and  C_17 
ROOT
ATOM      1  O   UNL d   1       9.518   7.767 -11.577  0.00  0.00    -0.289 OA
ATOM      2  C   UNL d   1       9.364   6.732 -10.915  0.00  0.00     0.200 A 
ATOM      3  C   UNL d   1       9.677   6.487  -9.517  0.00  0.00     0.061 A 
ATOM      4  C   UNL d   1       9.328   5.211  -9.293  0.00  0.00     0.119 A 
ATOM      5  O   UNL d   1       8.866   4.531 -10.386  0.00  0.00    -0.326 OA
ATOM      6  C   UNL d   1       8.786   5.444 -11.486  0.00  0.00     0.157 A 
ATOM      7  C   UNL d   1       7.314   5.579 -11.913  0.00  0.00     0.071 C 
ATOM      8  C   UNL d   1       6.788   4.291 -12.594  0.00  0.00     0.254 C 
ATOM      9  N   UNL d   1       7.633   3.952 -13.758  0.00  0.00     0.144 N 
ATOM     10  C   UNL d   1       9.011   3.723 -13.325  0.00  0.00     0.254 C 
ATOM     11  C   UNL d   1       9.605   4.959 -12.676  0.00  0.00     0.071 C 
ENDROOT
BRANCH   3  12
ATOM     12  C   UNL d   1      10.215   7.442  -8.547  0.00  0.00     0.005 A 
ATOM     13  C   UNL d   1       9.455   7.854  -7.434  0.00  0.00     0.000 A 
ATOM     14  C   UNL d   1      10.034   8.751  -6.512  0.00  0.00     0.000 A 
ATOM     15  C   UNL d   1      11.345   9.213  -6.693  0.00  0.00     0.000 A 
ATOM     16  C   UNL d   1      12.094   8.782  -7.805  0.00  0.00     0.000 A 
ATOM     17  C   UNL d   1      11.521   7.917  -8.744  0.00  0.00     0.000 A 
ENDBRANCH   3  12
BRANCH   9  18
ATOM     18  C   UNL d   1       7.104   2.760 -14.434  0.00  0.00     0.301 C 
BRANCH  18  19
ATOM     19  C   UNL d   1       7.880   2.278 -15.643  0.00  0.00     0.111 A 
ATOM     20  O   UNL d   1       7.133   1.972 -16.750  0.00  0.00    -0.307 OA
ATOM     21  C   UNL d   1       7.990   1.573 -17.733  0.00  0.00     0.122 A 
ATOM     22  C   UNL d   1       9.282   1.653 -17.289  0.00  0.00     0.029 A 
ATOM     23  C   UNL d   1       9.208   2.048 -15.931  0.00  0.00     0.024 A 
ENDBRANCH  18  19
ENDBRANCH   9  18
TORSDOF 3
