REMARK  7 active torsions:
REMARK  status: ('A' for Active; 'I' for Inactive)
REMARK    1  A    between atoms: C_6  and  N_7 
REMARK    2  A    between atoms: N_10  and  C_11 
REMARK    3  A    between atoms: C_11  and  C_12 
REMARK    4  A    between atoms: C_12  and  C_13 
REMARK    5  A    between atoms: C_13  and  C_14 
REMARK    6  A    between atoms: C_14  and  C_15 
REMARK    7  A    between atoms: N_17  and  C_18 
ROOT
ATOM      1  C   UNL d   1       7.521   5.977 -12.698  0.00  0.00     0.036 C 
ENDROOT
BRANCH   1   2
ATOM      2  C   UNL d   1       6.932   4.632 -13.171  0.00  0.00     0.250 C 
BRANCH   2   3
ATOM      3  N   UNL d   1       7.937   3.602 -13.485  0.00  0.00     0.141 N 
ATOM      4  C   UNL d   1       9.041   4.121 -14.299  0.00  0.00     0.274 C 
ATOM      5  C   UNL d   1      10.095   3.037 -14.548  0.00  0.00     0.137 C 
ATOM      6  N   UNL d   1       9.474   1.879 -15.174  0.00  0.00    -0.344 N 
ATOM      7  C   UNL d   1       8.315   1.331 -14.456  0.00  0.00     0.137 C 
ATOM      8  C   UNL d   1       7.298   2.469 -14.165  0.00  0.00     0.274 C 
BRANCH   6   9
ATOM      9  C   UNL d   1       9.900   1.381 -16.395  0.00  0.00     0.068 A 
ATOM     10  C   UNL d   1      10.194  -0.004 -16.495  0.00  0.00     0.018 A 
ATOM     11  C   UNL d   1      10.680  -0.562 -17.690  0.00  0.00     0.002 A 
ATOM     12  C   UNL d   1      10.891   0.257 -18.814  0.00  0.00     0.012 A 
ATOM     13  C   UNL d   1      10.598   1.628 -18.748  0.00  0.00     0.070 A 
ATOM     14 CL   UNL d   1      10.847   2.604 -20.155  0.00  0.00    -0.081 Cl
ATOM     15  C   UNL d   1      10.095   2.195 -17.559  0.00  0.00     0.084 A 
ATOM     16 CL   UNL d   1       9.690   3.880 -17.590  0.00  0.00    -0.080 Cl
ENDBRANCH   6   9
ENDBRANCH   2   3
ENDBRANCH   1   2
BRANCH   1  17
ATOM     17  C   UNL d   1       8.164   5.855 -11.316  0.00  0.00     0.009 C 
BRANCH  17  18
ATOM     18  C   UNL d   1       9.248   6.900 -11.044  0.00  0.00     0.049 C 
BRANCH  18  19
ATOM     19  C   UNL d   1       9.702   6.886  -9.617  0.00  0.00     0.101 A 
ATOM     20  N   UNL d   1       9.863   5.707  -8.898  0.00  0.00    -0.133 NA
ATOM     21  N   UNL d   1      10.258   5.996  -7.700  0.00  0.00    -0.060 NA
ATOM     22  N   UNL d   1      10.412   7.341  -7.626  0.00  0.00    -0.209 N 
ATOM     23  C   UNL d   1      10.071   7.936  -8.829  0.00  0.00     0.119 A 
BRANCH  22  24
ATOM     24  C   UNL d   1      10.874   7.953  -6.434  0.00  0.00     0.085 A 
ATOM     25  C   UNL d   1      11.312   7.171  -5.332  0.00  0.00     0.021 A 
ATOM     26  C   UNL d   1      11.776   7.767  -4.142  0.00  0.00     0.021 A 
ATOM     27  C   UNL d   1      11.779   9.189  -4.084  0.00  0.00     0.082 A 
ATOM     28  C   UNL d   1      12.260   7.266  -2.881  0.00  0.00     0.022 A 
ATOM     29  C   UNL d   1      11.342   9.982  -5.158  0.00  0.00     0.021 A 
ATOM     30  N   UNL d   1      12.253   9.508  -2.826  0.00  0.00    -0.244 NA
ATOM     31  C   UNL d   1      10.898   9.360  -6.332  0.00  0.00     0.021 A 
ATOM     32  C   UNL d   1      12.547   8.361  -2.113  0.00  0.00     0.099 A 
ENDBRANCH  22  24
ENDBRANCH  18  19
ENDBRANCH  17  18
ENDBRANCH   1  17
TORSDOF 7
