REMARK  7 active torsions:
REMARK  status: ('A' for Active; 'I' for Inactive)
REMARK    1  A    between atoms: O_2  and  C_3 
REMARK    2  A    between atoms: C_6  and  C_7 
REMARK    3  A    between atoms: N_12  and  C_13 
REMARK    4  A    between atoms: C_13  and  C_14 
REMARK    5  A    between atoms: C_14  and  C_16 
REMARK    6  A    between atoms: C_16  and  N_17 
REMARK    7  A    between atoms: N_20  and  C_21 
ROOT
ATOM      1  C   UNL d   1      11.433   7.829  -5.242  0.00  0.00     0.066 A 
ATOM      2  C   UNL d   1      11.492   6.766  -4.324  0.00  0.00     0.018 A 
ATOM      3  C   UNL d   1      11.935   6.954  -3.005  0.00  0.00     0.002 A 
ATOM      4  C   UNL d   1      12.344   8.229  -2.587  0.00  0.00     0.001 A 
ATOM      5  C   UNL d   1      12.297   9.299  -3.494  0.00  0.00     0.012 A 
ATOM      6  C   UNL d   1      11.844   9.109  -4.806  0.00  0.00     0.084 A 
ATOM      7  C   UNL d   1      11.859  10.244  -5.715  0.00  0.00     0.102 C 
ATOM      8  N   UNL d   1      11.870  11.134  -6.445  0.00  0.00    -0.191 NA
ENDROOT
BRANCH   1   9
ATOM      9  N   UNL d   1      10.976   7.570  -6.536  0.00  0.00    -0.344 N 
ATOM     10  C   UNL d   1      11.465   6.433  -7.292  0.00  0.00     0.137 C 
ATOM     11  C   UNL d   1      10.292   5.671  -7.930  0.00  0.00     0.274 C 
ATOM     12  N   UNL d   1       9.396   6.519  -8.716  0.00  0.00     0.144 N 
ATOM     13  C   UNL d   1       8.920   7.598  -7.833  0.00  0.00     0.274 C 
ATOM     14  C   UNL d   1      10.053   8.438  -7.258  0.00  0.00     0.137 C 
BRANCH  12  15
ATOM     15  C   UNL d   1       8.267   5.743  -9.216  0.00  0.00     0.285 C 
BRANCH  15  16
ATOM     16  C   UNL d   1       8.569   4.954 -10.491  0.00  0.00     0.208 C 
ATOM     17  O   UNL d   1       7.454   4.147 -10.695  0.00  0.00    -0.219 OA
BRANCH  16  18
ATOM     18  C   UNL d   1       8.622   5.791 -11.772  0.00  0.00     0.148 C 
BRANCH  18  19
ATOM     19  N   UNL d   1       8.743   4.926 -12.958  0.00  0.00    -0.247 N 
ATOM     20  C   UNL d   1       7.728   4.370 -13.639  0.00  0.00     0.348 A 
ATOM     21  N   UNL d   1       8.248   3.590 -14.596  0.00  0.00    -0.209 NA
ATOM     22  O   UNL d   1       6.525   4.523 -13.433  0.00  0.00    -0.245 OA
ATOM     23  C   UNL d   1       9.685   3.635 -14.682  0.00  0.00     0.179 A 
ATOM     24  C   UNL d   1       9.895   4.491 -13.457  0.00  0.00     0.265 A 
ATOM     25  C   UNL d   1      10.254   2.227 -14.509  0.00  0.00     0.039 C 
ATOM     26  O   UNL d   1      11.002   4.753 -13.043  0.00  0.00    -0.269 OA
BRANCH  23  27
ATOM     27  C   UNL d   1      10.277   4.330 -15.927  0.00  0.00     0.006 A 
ATOM     28  C   UNL d   1      11.539   4.969 -15.862  0.00  0.00     0.000 A 
ATOM     29  C   UNL d   1      12.097   5.618 -16.957  0.00  0.00     0.024 A 
ATOM     30  C   UNL d   1      11.442   5.616 -18.208  0.00  0.00     0.094 A 
ATOM     31  C   UNL d   1      10.206   4.936 -18.308  0.00  0.00     0.024 A 
ATOM     32  C   UNL d   1       9.627   4.306 -17.181  0.00  0.00     0.000 A 
BRANCH  30  33
ATOM     33  O   UNL d   1      11.978   6.246 -19.316  0.00  0.00    -0.328 OA
ATOM     34  C   UNL d   1      13.107   7.095 -19.091  0.00  0.00     0.181 C 
ENDBRANCH  30  33
ENDBRANCH  23  27
ENDBRANCH  18  19
ENDBRANCH  16  18
ENDBRANCH  15  16
ENDBRANCH  12  15
ENDBRANCH   1   9
TORSDOF 7
