REMARK  5 active torsions:
REMARK  status: ('A' for Active; 'I' for Inactive)
REMARK    1  A    between atoms: C_2  and  C_3 
REMARK    2  A    between atoms: C_3  and  N_4 
REMARK    3  A    between atoms: C_13  and  O_14 
REMARK    4  A    between atoms: O_14  and  S_15 
REMARK    5  A    between atoms: S_15  and  C_18 
ROOT
ATOM      1  N   UNL d   1       6.720   0.107 -16.209  0.00  0.00     0.135 N 
ATOM      2  C   UNL d   1       5.438   0.286 -15.528  0.00  0.00     0.250 C 
ATOM      3  C   UNL d   1       5.370   1.254 -14.375  0.00  0.00     0.036 C 
ATOM      4  C   UNL d   1       6.351   0.808 -13.352  0.00  0.00     0.008 C 
ATOM      5  C   UNL d   1       7.741   0.788 -14.014  0.00  0.00     0.053 C 
ATOM      6  C   UNL d   1       8.303   2.166 -14.379  0.00  0.00    -0.023 A 
ATOM      7  C   UNL d   1       8.034   3.295 -13.569  0.00  0.00    -0.004 A 
ATOM      8  C   UNL d   1       8.604   4.539 -13.834  0.00  0.00     0.002 A 
ATOM      9  C   UNL d   1       9.453   4.649 -14.946  0.00  0.00     0.025 A 
ATOM     10  C   UNL d   1       9.735   3.558 -15.779  0.00  0.00     0.109 A 
ATOM     11  C   UNL d   1       9.167   2.307 -15.491  0.00  0.00    -0.002 A 
ATOM     12  C   UNL d   1       9.506   1.139 -16.398  0.00  0.00     0.030 C 
ATOM     13  C   UNL d   1       9.131  -0.223 -15.826  0.00  0.00     0.038 C 
ATOM     14  C   UNL d   1       7.728  -0.211 -15.191  0.00  0.00     0.224 C 
ENDROOT
BRANCH  10  15
ATOM     15  O   UNL d   1      10.550   3.742 -16.867  0.00  0.00    -0.225 OA
BRANCH  15  16
ATOM     16  S   UNL d   1      12.209   3.540 -16.632  0.00  0.00     0.374 S 
ATOM     17  O   UNL d   1      12.581   4.231 -15.382  0.00  0.00    -0.189 OA
ATOM     18  O   UNL d   1      12.525   2.128 -16.843  0.00  0.00    -0.189 OA
BRANCH  16  19
ATOM     19  C   UNL d   1      12.840   4.476 -18.084  0.00  0.00     0.524 C 
ATOM     20  F   UNL d   1      13.633   5.453 -17.648  0.00  0.00    -0.155 F 
ATOM     21  F   UNL d   1      13.523   3.634 -18.859  0.00  0.00    -0.155 F 
ATOM     22  F   UNL d   1      11.816   4.984 -18.771  0.00  0.00    -0.155 F 
ENDBRANCH  16  19
ENDBRANCH  15  16
ENDBRANCH  10  15
BRANCH   1  23
ATOM     23  C   UNL d   1       6.555  -0.924 -17.258  0.00  0.00     0.250 C 
BRANCH  23  24
ATOM     24  C   UNL d   1       5.543  -2.072 -16.962  0.00  0.00     0.035 C 
ATOM     25  C   UNL d   1       4.042  -1.665 -17.090  0.00  0.00     0.002 C 
ENDBRANCH  23  24
ENDBRANCH   1  23
TORSDOF 5
