REMARK  2 active torsions:
REMARK  status: ('A' for Active; 'I' for Inactive)
REMARK    1  A    between atoms: C_2  and  C_3 
REMARK    2  A    between atoms: C_3  and  N_4 
ROOT
ATOM      1  N   UNL d   1      10.681   8.949  -7.286  0.00  0.00     0.140 N 
ATOM      2  C   UNL d   1      12.075   8.620  -7.542  0.00  0.00     0.282 C 
ATOM      3  C   UNL d   1      12.380   8.547  -9.043  0.00  0.00     0.178 C 
ATOM      4  O   UNL d   1      11.562   7.567  -9.640  0.00  0.00    -0.348 OA
ATOM      5  C   UNL d   1      10.179   7.825  -9.469  0.00  0.00     0.169 C 
ATOM      6  C   UNL d   1       9.445   6.728 -10.203  0.00  0.00     0.005 A 
ATOM      7  C   UNL d   1       9.390   6.740 -11.608  0.00  0.00     0.025 A 
ATOM      8  C   UNL d   1       8.702   5.714 -12.295  0.00  0.00     0.131 A 
ATOM      9  O   UNL d   1       8.629   5.664 -13.642  0.00  0.00    -0.190 OA
ATOM     10  C   UNL d   1       8.043   4.703 -11.590  0.00  0.00     0.027 A 
ATOM     11  C   UNL d   1       8.101   4.707 -10.205  0.00  0.00    -0.002 A 
ATOM     12  C   UNL d   1       8.801   5.683  -9.490  0.00  0.00    -0.024 A 
ATOM     13  C   UNL d   1       8.772   5.628  -7.987  0.00  0.00     0.028 C 
ATOM     14  C   UNL d   1       9.799   6.524  -7.319  0.00  0.00     0.041 C 
ATOM     15  C   UNL d   1       9.815   7.947  -7.956  0.00  0.00     0.251 C 
ENDROOT
BRANCH   1  16
ATOM     16  C   UNL d   1      10.408   9.115  -5.859  0.00  0.00     0.250 C 
BRANCH  16  17
ATOM     17  C   UNL d   1      11.226  10.185  -5.095  0.00  0.00     0.035 C 
ATOM     18  C   UNL d   1      11.838   9.563  -3.819  0.00  0.00     0.002 C 
ENDBRANCH  16  17
ENDBRANCH   1  16
TORSDOF 2
