REMARK  5 active torsions:
REMARK  status: ('A' for Active; 'I' for Inactive)
REMARK    1  A    between atoms: N_11  and  C_12 
REMARK    2  A    between atoms: C_12  and  C_13 
REMARK    3  A    between atoms: C_13  and  C_14 
REMARK    4  A    between atoms: C_17  and  N_18 
REMARK       I    between atoms: N_18  and  C_19 
REMARK    5  A    between atoms: C_19  and  C_21 
ROOT
ATOM      1  N   UNL d   1       5.107  -2.492 -19.544  0.00  0.00    -0.191 NA
ATOM      2  C   UNL d   1       5.567  -1.812 -18.726  0.00  0.00     0.101 C 
ATOM      3  C   UNL d   1       6.147  -0.957 -17.704  0.00  0.00     0.068 A 
ATOM      4  C   UNL d   1       5.447  -0.709 -16.506  0.00  0.00     0.010 A 
ATOM      5  C   UNL d   1       6.009   0.113 -15.514  0.00  0.00    -0.002 A 
ATOM      6  C   UNL d   1       7.276   0.694 -15.717  0.00  0.00     0.007 A 
ATOM      7  C   UNL d   1       7.980   0.447 -16.914  0.00  0.00    -0.022 A 
ATOM      8  C   UNL d   1       7.415  -0.376 -17.907  0.00  0.00     0.006 A 
ATOM      9  C   UNL d   1       9.335   1.102 -17.129  0.00  0.00     0.061 C 
ATOM     10  C   UNL d   1       9.954   1.655 -15.825  0.00  0.00     0.255 C 
ATOM     11  N   UNL d   1       8.956   2.455 -15.110  0.00  0.00     0.142 N 
ATOM     12  C   UNL d   1       7.903   1.548 -14.630  0.00  0.00     0.276 C 
ENDROOT
BRANCH  11  13
ATOM     13  C   UNL d   1       9.578   3.148 -13.982  0.00  0.00     0.251 C 
BRANCH  13  14
ATOM     14  C   UNL d   1       8.616   4.170 -13.337  0.00  0.00     0.035 C 
BRANCH  14  15
ATOM     15  C   UNL d   1       9.283   5.067 -12.269  0.00  0.00     0.002 C 
ATOM     16  C   UNL d   1       9.328   4.398 -10.885  0.00  0.00     0.002 C 
ATOM     17  C   UNL d   1       9.879   5.294  -9.762  0.00  0.00     0.024 C 
ATOM     18  C   UNL d   1       9.134   6.605  -9.689  0.00  0.00     0.107 C 
ATOM     19  C   UNL d   1       9.191   7.291 -11.075  0.00  0.00     0.024 C 
ATOM     20  C   UNL d   1       8.554   6.408 -12.150  0.00  0.00     0.002 C 
BRANCH  18  21
ATOM     21  N   UNL d   1       9.850   7.417  -8.724  0.00  0.00    -0.236 NA
ATOM     22  C   UNL d   1       9.647   7.360  -7.412  0.00  0.00     0.275 C 
ATOM     23  O   UNL d   1       8.805   6.642  -6.867  0.00  0.00    -0.266 OA
BRANCH  22  24
ATOM     24  C   UNL d   1      10.505   8.305  -6.640  0.00  0.00     0.060 A 
ATOM     25  C   UNL d   1      11.074   8.046  -5.367  0.00  0.00     0.022 A 
ATOM     26  C   UNL d   1      11.748   9.075  -4.684  0.00  0.00     0.082 A 
ATOM     27  C   UNL d   1      11.023   6.779  -4.758  0.00  0.00     0.002 A 
ATOM     28  N   UNL d   1      11.880  10.303  -5.246  0.00  0.00    -0.244 NA
ATOM     29  C   UNL d   1      12.309   8.878  -3.418  0.00  0.00     0.019 A 
ATOM     30  C   UNL d   1      11.406  10.520  -6.450  0.00  0.00     0.099 A 
ATOM     31  C   UNL d   1      10.702   9.572  -7.184  0.00  0.00     0.025 A 
ATOM     32  C   UNL d   1      12.236   7.615  -2.824  0.00  0.00     0.002 A 
ATOM     33  C   UNL d   1      11.592   6.569  -3.495  0.00  0.00     0.000 A 
ENDBRANCH  22  24
ENDBRANCH  18  21
ENDBRANCH  14  15
ENDBRANCH  13  14
ENDBRANCH  11  13
TORSDOF 5
