REMARK  3 active torsions:
REMARK  status: ('A' for Active; 'I' for Inactive)
REMARK    1  A    between atoms: C_4  and  O_5 
REMARK    2  A    between atoms: O_5  and  C_6 
REMARK    3  A    between atoms: C_17  and  C_18 
ROOT
ATOM      1  C   UNL d   1      11.625   3.401 -14.684  0.00  0.00     0.031 C 
ATOM      2  C   UNL d   1      10.145   3.366 -14.349  0.00  0.00    -0.018 A 
ATOM      3  C   UNL d   1       9.703   4.004 -13.179  0.00  0.00     0.021 A 
ATOM      4  C   UNL d   1       8.333   4.039 -12.841  0.00  0.00     0.102 A 
ATOM      5  C   UNL d   1       7.406   3.388 -13.676  0.00  0.00     0.025 A 
ATOM      6  C   UNL d   1       7.850   2.715 -14.829  0.00  0.00     0.003 A 
ATOM      7  C   UNL d   1       9.215   2.709 -15.186  0.00  0.00     0.013 A 
ENDROOT
BRANCH   4   8
ATOM      8  O   UNL d   1       7.891   4.672 -11.703  0.00  0.00    -0.289 OA
BRANCH   8   9
ATOM      9  C   UNL d   1       8.500   5.851 -11.342  0.00  0.00     0.184 A 
ATOM     10  C   UNL d   1       9.082   6.006 -10.059  0.00  0.00     0.066 A 
ATOM     11  C   UNL d   1       9.753   7.231  -9.819  0.00  0.00     0.105 A 
ATOM     12  C   UNL d   1       9.207   5.245  -8.846  0.00  0.00     0.032 A 
ATOM     13  C   UNL d   1       9.860   8.232 -10.790  0.00  0.00     0.045 A 
ATOM     14  O   UNL d   1      10.272   7.237  -8.543  0.00  0.00    -0.305 OA
ATOM     15  C   UNL d   1       9.241   7.973 -12.024  0.00  0.00     0.103 A 
ATOM     16  N   UNL d   1       8.599   6.817 -12.296  0.00  0.00    -0.220 NA
ATOM     17  C   UNL d   1       9.908   6.048  -7.976  0.00  0.00     0.123 A 
ENDBRANCH   8   9
ENDBRANCH   4   8
BRANCH   7  18
ATOM     18  C   UNL d   1       9.645   2.018 -16.412  0.00  0.00     0.079 A 
ATOM     19  N   UNL d   1       9.754   2.717 -17.579  0.00  0.00    -0.287 N 
ATOM     20  C   UNL d   1      10.165   2.092 -18.782  0.00  0.00     0.167 A 
ATOM     21  C   UNL d   1       9.526   4.047 -17.892  0.00  0.00     0.102 A 
ATOM     22  C   UNL d   1      10.463   0.702 -18.709  0.00  0.00     0.136 A 
ATOM     23  N   UNL d   1      10.186   2.976 -19.779  0.00  0.00    -0.223 NA
ATOM     24  N   UNL d   1      10.366   0.028 -17.600  0.00  0.00    -0.244 NA
ATOM     25  C   UNL d   1       9.959   0.680 -16.463  0.00  0.00     0.076 A 
ATOM     26  C   UNL d   1       9.868  -0.185 -15.224  0.00  0.00     0.054 C 
ATOM     27  C   UNL d   1       9.794   4.188 -19.225  0.00  0.00     0.120 A 
ENDBRANCH   7  18
TORSDOF 3
