REMARK  6 active torsions:
REMARK  status: ('A' for Active; 'I' for Inactive)
REMARK       I    between atoms: C_2  and  N_3 
REMARK    1  A    between atoms: C_2  and  C_22 
REMARK    2  A    between atoms: N_3  and  C_4 
REMARK    3  A    between atoms: C_4  and  C_5 
REMARK    4  A    between atoms: C_6  and  C_7 
REMARK    5  A    between atoms: C_7  and  N_8 
REMARK    6  A    between atoms: N_11  and  C_12 
ROOT
ATOM      1  N   UNL d   1       8.794   4.740 -12.482  0.00  0.00     0.145 N 
ATOM      2  C   UNL d   1       9.408   3.604 -13.184  0.00  0.00     0.275 C 
ATOM      3  C   UNL d   1       8.591   3.175 -14.415  0.00  0.00     0.137 C 
ATOM      4  N   UNL d   1       7.197   2.936 -14.050  0.00  0.00    -0.344 N 
ATOM      5  C   UNL d   1       6.575   4.006 -13.267  0.00  0.00     0.137 C 
ATOM      6  C   UNL d   1       7.432   4.401 -12.052  0.00  0.00     0.275 C 
ENDROOT
BRANCH   1   7
ATOM      7  C   UNL d   1       9.675   5.106 -11.374  0.00  0.00     0.276 C 
BRANCH   7   8
ATOM      8  C   UNL d   1       9.033   5.886 -10.258  0.00  0.00     0.006 C 
ATOM      9  C   UNL d   1       9.415   5.814  -8.970  0.00  0.00    -0.003 C 
BRANCH   9  10
ATOM     10  C   UNL d   1       8.718   6.581  -7.865  0.00  0.00     0.155 C 
BRANCH  10  11
ATOM     11  N   UNL d   1       9.575   6.846  -6.732  0.00  0.00    -0.229 NA
ATOM     12  C   UNL d   1      10.363   7.929  -6.629  0.00  0.00     0.275 C 
ATOM     13  O   UNL d   1      10.473   8.780  -7.508  0.00  0.00    -0.266 OA
BRANCH  12  14
ATOM     14  C   UNL d   1      11.029   8.103  -5.297  0.00  0.00     0.060 A 
ATOM     15  C   UNL d   1      11.527   6.993  -4.575  0.00  0.00     0.034 A 
ATOM     16  C   UNL d   1      12.154   7.192  -3.329  0.00  0.00     0.140 A 
ATOM     17  C   UNL d   1      12.271   8.483  -2.795  0.00  0.00     0.030 A 
ATOM     18  F   UNL d   1      12.657   6.140  -2.641  0.00  0.00    -0.204 F 
ATOM     19  C   UNL d   1      11.771   9.585  -3.504  0.00  0.00     0.003 A 
ATOM     20  C   UNL d   1      11.156   9.402  -4.755  0.00  0.00     0.005 A 
ENDBRANCH  12  14
ENDBRANCH  10  11
ENDBRANCH   9  10
ENDBRANCH   7   8
ENDBRANCH   1   7
BRANCH   4  21
ATOM     21  C   UNL d   1       6.510   1.759 -14.364  0.00  0.00     0.068 A 
ATOM     22  C   UNL d   1       6.602   1.122 -15.638  0.00  0.00     0.084 A 
ATOM     23  C   UNL d   1       5.848  -0.047 -15.904  0.00  0.00     0.070 A 
ATOM     24 CL   UNL d   1       7.534   1.807 -16.928  0.00  0.00    -0.080 Cl
ATOM     25  C   UNL d   1       4.992  -0.575 -14.929  0.00  0.00     0.012 A 
ATOM     26 CL   UNL d   1       5.900  -0.799 -17.460  0.00  0.00    -0.081 Cl
ATOM     27  C   UNL d   1       4.866   0.058 -13.688  0.00  0.00     0.002 A 
ATOM     28  C   UNL d   1       5.634   1.200 -13.402  0.00  0.00     0.018 A 
ENDBRANCH   4  21
TORSDOF 6
