REMARK  5 active torsions:
REMARK  status: ('A' for Active; 'I' for Inactive)
REMARK    1  A    between atoms: C_2  and  C_3 
REMARK    2  A    between atoms: C_3  and  C_4 
REMARK       I    between atoms: C_4  and  N_6 
REMARK    3  A    between atoms: N_6  and  C_7 
REMARK    4  A    between atoms: N_15  and  S_16 
REMARK    5  A    between atoms: S_16  and  C_19 
ROOT
ATOM      1  C   UNL d   1      10.573   7.449  -7.692  0.00  0.00     0.087 A 
ATOM      2  C   UNL d   1      11.080   8.735  -8.032  0.00  0.00     0.019 A 
ATOM      3  C   UNL d   1      11.001   9.211  -9.351  0.00  0.00     0.003 A 
ATOM      4  C   UNL d   1      10.392   8.419 -10.348  0.00  0.00     0.020 A 
ATOM      5  C   UNL d   1       9.913   7.144 -10.018  0.00  0.00     0.098 A 
ATOM      6  C   UNL d   1      10.018   6.625  -8.703  0.00  0.00     0.057 A 
ATOM      7  C   UNL d   1       9.514   5.286  -8.791  0.00  0.00     0.124 A 
ATOM      8  N   UNL d   1       9.185   4.965 -10.017  0.00  0.00    -0.154 NA
ATOM      9  N   UNL d   1       9.337   6.097 -10.729  0.00  0.00    -0.152 N 
ENDROOT
BRANCH   9  10
ATOM     10  S   UNL d   1       9.018   6.074 -12.392  0.00  0.00     0.286 S 
ATOM     11  O   UNL d   1       8.447   7.393 -12.633  0.00  0.00    -0.198 OA
ATOM     12  O   UNL d   1      10.242   5.589 -13.010  0.00  0.00    -0.198 OA
BRANCH  10  13
ATOM     13  C   UNL d   1       7.702   4.895 -12.700  0.00  0.00     0.105 A 
ATOM     14  C   UNL d   1       7.720   3.785 -13.607  0.00  0.00     0.012 A 
ATOM     15  C   UNL d   1       6.589   2.913 -13.620  0.00  0.00     0.001 A 
ATOM     16  C   UNL d   1       8.810   3.462 -14.477  0.00  0.00     0.001 A 
ATOM     17  C   UNL d   1       5.479   3.172 -12.796  0.00  0.00     0.000 A 
ATOM     18  C   UNL d   1       6.578   1.730 -14.389  0.00  0.00     0.000 A 
ATOM     19  C   UNL d   1       5.452   4.331 -12.016  0.00  0.00     0.001 A 
ATOM     20  C   UNL d   1       6.564   5.175 -11.934  0.00  0.00     0.013 A 
ATOM     21  C   UNL d   1       7.676   1.405 -15.210  0.00  0.00     0.000 A 
ATOM     22  C   UNL d   1       8.776   2.274 -15.237  0.00  0.00     0.000 A 
ENDBRANCH  10  13
ENDBRANCH   9  10
BRANCH   1  23
ATOM     23  N   UNL d   1      10.683   6.856  -6.405  0.00  0.00    -0.212 NA
ATOM     24  C   UNL d   1      11.067   7.466  -5.276  0.00  0.00     0.258 C 
ATOM     25  O   UNL d   1      11.081   8.690  -5.125  0.00  0.00    -0.270 OA
BRANCH  24  26
ATOM     26  C   UNL d   1      11.460   6.540  -4.127  0.00  0.00     0.131 C 
BRANCH  26  27
ATOM     27  C   UNL d   1      12.450   7.113  -3.098  0.00  0.00     0.348 C 
ATOM     28  N   UNL d   1      11.927   8.261  -2.413  0.00  0.00     0.619 N 
ENDBRANCH  26  27
ENDBRANCH  24  26
ENDBRANCH   1  23
TORSDOF 5
