REMARK  4 active torsions:
REMARK  status: ('A' for Active; 'I' for Inactive)
REMARK    1  A    between atoms: C_2  and  C_3 
REMARK    2  A    between atoms: C_3  and  N_4 
REMARK    3  A    between atoms: C_7  and  C_8 
REMARK    4  A    between atoms: C_11  and  N_12 
ROOT
ATOM      1  C   UNL d   1       8.320   4.871 -11.673  0.00  0.00    -0.022 A 
ATOM      2  C   UNL d   1       9.444   4.522 -12.445  0.00  0.00    -0.003 A 
ATOM      3  C   UNL d   1       9.314   3.750 -13.602  0.00  0.00     0.017 A 
ATOM      4  C   UNL d   1       8.040   3.297 -14.027  0.00  0.00     0.056 A 
ATOM      5  C   UNL d   1       6.907   3.665 -13.262  0.00  0.00     0.017 A 
ATOM      6  C   UNL d   1       7.042   4.436 -12.092  0.00  0.00    -0.003 A 
ENDROOT
BRANCH   1   7
ATOM      7  C   UNL d   1       8.490   5.704 -10.411  0.00  0.00     0.026 C 
ATOM      8  C   UNL d   1       9.294   6.988 -10.687  0.00  0.00     0.040 C 
ATOM      9  C   UNL d   1       9.568   7.779  -9.406  0.00  0.00     0.251 C 
ATOM     10  N   UNL d   1      10.307   6.948  -8.456  0.00  0.00     0.137 N 
ATOM     11  C   UNL d   1       9.454   5.817  -8.075  0.00  0.00     0.251 C 
ATOM     12  C   UNL d   1       9.170   4.910  -9.285  0.00  0.00     0.040 C 
BRANCH  10  13
ATOM     13  C   UNL d   1      10.620   7.726  -7.258  0.00  0.00     0.250 C 
BRANCH  13  14
ATOM     14  C   UNL d   1      11.686   8.809  -7.514  0.00  0.00     0.035 C 
ATOM     15  C   UNL d   1      11.914   9.692  -6.282  0.00  0.00     0.002 C 
ENDBRANCH  13  14
ENDBRANCH  10  13
ENDBRANCH   1   7
BRANCH   4  16
ATOM     16  N   UNL d   1       7.891   2.491 -15.174  0.00  0.00    -0.343 N 
ATOM     17  C   UNL d   1       7.113   1.265 -15.018  0.00  0.00     0.134 C 
ATOM     18  C   UNL d   1       8.044   0.107 -14.621  0.00  0.00     0.167 C 
ATOM     19  O   UNL d   1       9.088  -0.022 -15.585  0.00  0.00    -0.350 OA
ATOM     20  C   UNL d   1       9.904   1.142 -15.667  0.00  0.00     0.167 C 
ATOM     21  C   UNL d   1       9.022   2.337 -16.090  0.00  0.00     0.134 C 
ENDBRANCH   4  16
TORSDOF 4
