REMARK  0 active torsions:
REMARK  status: ('A' for Active; 'I' for Inactive)
ROOT
ATOM      1  C   UNL d   1       7.816   6.000 -11.951  0.00  0.00     0.286 C 
ATOM      2  N   UNL d   1       7.415   4.638 -12.299  0.00  0.00     0.142 N 
ATOM      3  C   UNL d   1       5.987   4.664 -12.565  0.00  0.00     0.255 C 
ATOM      4  C   UNL d   1       5.512   3.218 -12.639  0.00  0.00     0.061 C 
ATOM      5  C   UNL d   1       6.260   2.355 -13.640  0.00  0.00    -0.020 A 
ATOM      6  C   UNL d   1       5.811   1.124 -14.123  0.00  0.00     0.025 A 
ATOM      7  C   UNL d   1       6.609   0.363 -14.982  0.00  0.00     0.156 A 
ATOM      8  O   UNL d   1       6.108  -0.827 -15.418  0.00  0.00    -0.188 OA
ATOM      9  C   UNL d   1       7.886   0.824 -15.371  0.00  0.00     0.156 A 
ATOM     10  O   UNL d   1       8.640  -0.008 -16.151  0.00  0.00    -0.188 OA
ATOM     11  C   UNL d   1       8.389   2.095 -14.954  0.00  0.00     0.025 A 
ATOM     12  C   UNL d   1       7.545   2.803 -14.052  0.00  0.00     0.007 A 
ATOM     13  C   UNL d   1       8.097   4.139 -13.501  0.00  0.00     0.246 C 
ATOM     14  C   UNL d   1       9.622   4.033 -13.249  0.00  0.00     0.064 C 
ATOM     15  C   UNL d   1      10.350   3.564 -14.491  0.00  0.00    -0.020 A 
ATOM     16  C   UNL d   1      11.623   4.088 -14.798  0.00  0.00    -0.004 A 
ATOM     17  C   UNL d   1      12.263   3.725 -15.995  0.00  0.00    -0.000 A 
ATOM     18  C   UNL d   1      11.628   2.845 -16.885  0.00  0.00    -0.000 A 
ATOM     19  C   UNL d   1      10.362   2.318 -16.568  0.00  0.00    -0.000 A 
ATOM     20  C   UNL d   1       9.712   2.643 -15.352  0.00  0.00    -0.002 A 
ENDROOT
TORSDOF 0
