REMARK  8 active torsions:
REMARK  status: ('A' for Active; 'I' for Inactive)
REMARK    1  A    between atoms: C_2  and  C_3 
REMARK    2  A    between atoms: C_2  and  C_22 
REMARK    3  A    between atoms: C_3  and  C_4 
REMARK    4  A    between atoms: C_4  and  N_5 
REMARK    5  A    between atoms: C_7  and  C_8 
REMARK    6  A    between atoms: C_11  and  C_12 
REMARK    7  A    between atoms: C_22  and  N_23 
REMARK    8  A    between atoms: N_26  and  C_27 
ROOT
ATOM      1  C   UNL d   1       9.066   3.831 -13.317  0.00  0.00     0.061 C 
ENDROOT
BRANCH   1   2
ATOM      2  C   UNL d   1      10.248   4.080 -14.308  0.00  0.00     0.188 C 
ATOM      3  O   UNL d   1      11.290   4.768 -13.646  0.00  0.00    -0.221 OA
BRANCH   2   4
ATOM      4  C   UNL d   1      10.803   2.732 -14.836  0.00  0.00     0.283 C 
BRANCH   4   5
ATOM      5  N   UNL d   1      10.055   2.088 -15.939  0.00  0.00     0.144 N 
ATOM      6  C   UNL d   1       8.686   2.601 -16.103  0.00  0.00     0.274 C 
ATOM      7  C   UNL d   1       7.914   1.954 -17.256  0.00  0.00     0.137 C 
ATOM      8  N   UNL d   1       7.922   0.516 -17.047  0.00  0.00    -0.344 N 
ATOM      9  C   UNL d   1       9.222  -0.104 -16.830  0.00  0.00     0.137 C 
ATOM     10  C   UNL d   1       9.997   0.636 -15.715  0.00  0.00     0.274 C 
BRANCH   8  11
ATOM     11  C   UNL d   1       6.706  -0.206 -16.955  0.00  0.00     0.068 A 
ATOM     12  C   UNL d   1       5.871  -0.141 -15.813  0.00  0.00     0.084 A 
ATOM     13  C   UNL d   1       4.646  -0.860 -15.809  0.00  0.00     0.070 A 
ATOM     14 CL   UNL d   1       6.294   0.769 -14.403  0.00  0.00    -0.080 Cl
ATOM     15  C   UNL d   1       4.279  -1.620 -16.929  0.00  0.00     0.012 A 
ATOM     16 CL   UNL d   1       3.592  -0.811 -14.443  0.00  0.00    -0.081 Cl
ATOM     17  C   UNL d   1       5.112  -1.686 -18.055  0.00  0.00     0.002 A 
ATOM     18  C   UNL d   1       6.331  -0.973 -18.068  0.00  0.00     0.018 A 
ENDBRANCH   8  11
ENDBRANCH   4   5
ENDBRANCH   2   4
ENDBRANCH   1   2
BRANCH   1  19
ATOM     19  C   UNL d   1       8.183   5.080 -13.162  0.00  0.00     0.132 C 
BRANCH  19  20
ATOM     20  N   UNL d   1       8.705   5.956 -12.139  0.00  0.00    -0.230 N 
ATOM     21  N   UNL d   1       8.985   7.250 -12.414  0.00  0.00    -0.064 NA
ATOM     22  N   UNL d   1       9.468   7.769 -11.327  0.00  0.00    -0.129 NA
ATOM     23  C   UNL d   1       9.503   6.796 -10.320  0.00  0.00     0.123 A 
ATOM     24  C   UNL d   1       9.011   5.631 -10.835  0.00  0.00     0.118 A 
BRANCH  23  25
ATOM     25  C   UNL d   1       9.986   7.094  -8.975  0.00  0.00     0.021 A 
ATOM     26  C   UNL d   1       9.373   6.497  -7.857  0.00  0.00     0.002 A 
ATOM     27  C   UNL d   1       9.828   6.794  -6.558  0.00  0.00     0.000 A 
ATOM     28  C   UNL d   1      10.910   7.676  -6.347  0.00  0.00     0.000 A 
ATOM     29  C   UNL d   1      11.514   8.272  -7.475  0.00  0.00     0.000 A 
ATOM     30  C   UNL d   1      11.061   7.985  -8.776  0.00  0.00     0.002 A 
BRANCH  28  31
ATOM     31  C   UNL d   1      11.390   7.975  -4.987  0.00  0.00     0.000 A 
ATOM     32  C   UNL d   1      11.812   6.941  -4.118  0.00  0.00     0.000 A 
ATOM     33  C   UNL d   1      12.259   7.221  -2.813  0.00  0.00     0.000 A 
ATOM     34  C   UNL d   1      12.282   8.551  -2.354  0.00  0.00     0.000 A 
ATOM     35  C   UNL d   1      11.858   9.580  -3.202  0.00  0.00     0.000 A 
ATOM     36  C   UNL d   1      11.422   9.304  -4.511  0.00  0.00     0.000 A 
ENDBRANCH  28  31
ENDBRANCH  23  25
ENDBRANCH  19  20
ENDBRANCH   1  19
TORSDOF 8
