REMARK  2 active torsions:
REMARK  status: ('A' for Active; 'I' for Inactive)
REMARK    1  A    between atoms: C_9  and  N_10 
REMARK       I    between atoms: N_10  and  C_11 
REMARK    2  A    between atoms: C_11  and  C_13 
ROOT
ATOM      1  N   UNL d   1       9.958   7.105 -10.984  0.00  0.00    -0.235 NA
ATOM      2  C   UNL d   1       9.229   7.291 -12.068  0.00  0.00     0.294 C 
ATOM      3  O   UNL d   1       8.842   8.404 -12.441  0.00  0.00    -0.264 OA
ENDROOT
BRANCH   2   4
ATOM      4  C   UNL d   1       9.007   6.035 -12.840  0.00  0.00     0.160 A 
ATOM      5  C   UNL d   1       7.789   5.281 -12.755  0.00  0.00     0.041 A 
ATOM      6  C   UNL d   1       7.936   4.208 -13.679  0.00  0.00     0.080 A 
ATOM      7  C   UNL d   1       6.582   5.345 -12.026  0.00  0.00     0.003 A 
ATOM      8  N   UNL d   1       9.190   4.407 -14.232  0.00  0.00    -0.249 N 
ATOM      9  C   UNL d   1       6.932   3.240 -13.881  0.00  0.00     0.019 A 
ATOM     10  N   UNL d   1       9.850   5.461 -13.680  0.00  0.00    -0.165 NA
ATOM     11  C   UNL d   1       9.851   3.637 -15.271  0.00  0.00     0.154 C 
ATOM     12  C   UNL d   1       5.752   3.316 -13.122  0.00  0.00     0.002 A 
ATOM     13  C   UNL d   1       5.584   4.365 -12.202  0.00  0.00     0.000 A 
ENDBRANCH   2   4
BRANCH   1  14
ATOM     14  C   UNL d   1      10.587   8.098 -10.136  0.00  0.00     0.111 C 
ATOM     15  C   UNL d   1      11.726   7.471  -9.325  0.00  0.00     0.058 C 
ATOM     16  C   UNL d   1      11.241   6.772  -8.026  0.00  0.00     0.221 C 
ATOM     17  N   UNL d   1      10.365   7.596  -7.197  0.00  0.00     0.135 N 
ATOM     18  C   UNL d   1      10.505   5.434  -8.226  0.00  0.00     0.033 C 
ATOM     19  C   UNL d   1      11.016   8.723  -6.551  0.00  0.00     0.285 C 
ATOM     20  C   UNL d   1       9.165   7.944  -7.965  0.00  0.00     0.221 C 
ATOM     21  C   UNL d   1       9.544   8.757  -9.236  0.00  0.00     0.058 C 
ATOM     22  C   UNL d   1       8.408   6.596  -8.139  0.00  0.00     0.033 C 
ATOM     23  C   UNL d   1       9.114   5.432  -8.789  0.00  0.00     0.004 C 
ENDBRANCH   1  14
TORSDOF 2
