REMARK  5 active torsions:
REMARK  status: ('A' for Active; 'I' for Inactive)
REMARK    1  A    between atoms: C_8  and  N_9 
REMARK    2  A    between atoms: N_12  and  C_13 
REMARK    3  A    between atoms: C_13  and  C_14 
REMARK    4  A    between atoms: C_14  and  C_15 
REMARK    5  A    between atoms: C_15  and  C_18 
ROOT
ATOM      1  N   UNL d   1       5.728   3.994 -12.673  0.00  0.00    -0.191 NA
ATOM      2  C   UNL d   1       6.828   3.990 -13.031  0.00  0.00     0.104 C 
ATOM      3  C   UNL d   1       8.216   3.980 -13.489  0.00  0.00     0.102 A 
ATOM      4  C   UNL d   1       8.543   3.244 -14.645  0.00  0.00     0.015 A 
ATOM      5  C   UNL d   1       9.872   3.220 -15.095  0.00  0.00     0.021 A 
ATOM      6  C   UNL d   1      10.835   3.928 -14.353  0.00  0.00     0.101 A 
ATOM      7  N   UNL d   1      10.545   4.637 -13.242  0.00  0.00    -0.227 NA
ATOM      8  C   UNL d   1       9.262   4.657 -12.813  0.00  0.00     0.150 A 
ENDROOT
BRANCH   8   9
ATOM      9  N   UNL d   1       9.029   5.393 -11.646  0.00  0.00    -0.329 N 
ATOM     10  C   UNL d   1       9.330   4.864 -10.329  0.00  0.00     0.138 C 
ATOM     11  C   UNL d   1      10.177   5.878  -9.543  0.00  0.00     0.274 C 
ATOM     12  N   UNL d   1       9.539   7.193  -9.496  0.00  0.00     0.141 N 
ATOM     13  C   UNL d   1       9.356   7.689 -10.870  0.00  0.00     0.274 C 
ATOM     14  C   UNL d   1       8.464   6.725 -11.683  0.00  0.00     0.138 C 
BRANCH  12  15
ATOM     15  C   UNL d   1      10.371   8.139  -8.762  0.00  0.00     0.257 C 
BRANCH  15  16
ATOM     16  C   UNL d   1      10.169   7.973  -7.241  0.00  0.00     0.084 C 
BRANCH  16  17
ATOM     17  C   UNL d   1      11.074   8.892  -6.418  0.00  0.00     0.090 C 
ATOM     18  N   UNL d   1      11.443   9.989  -6.974  0.00  0.00    -0.101 NA
ATOM     19  O   UNL d   1      12.262  10.763  -6.127  0.00  0.00    -0.061 OA
BRANCH  17  20
ATOM     20  C   UNL d   1      11.438   8.432  -5.038  0.00  0.00     0.016 A 
ATOM     21  C   UNL d   1      11.754   7.071  -4.790  0.00  0.00     0.001 A 
ATOM     22  C   UNL d   1      12.096   6.633  -3.499  0.00  0.00     0.000 A 
ATOM     23  C   UNL d   1      12.168   7.540  -2.432  0.00  0.00     0.000 A 
ATOM     24  C   UNL d   1      11.868   8.896  -2.658  0.00  0.00     0.000 A 
ATOM     25  C   UNL d   1      11.473   9.330  -3.938  0.00  0.00     0.001 A 
ENDBRANCH  17  20
ENDBRANCH  16  17
ENDBRANCH  15  16
ENDBRANCH  12  15
ENDBRANCH   8   9
TORSDOF 5
