REMARK  3 active torsions:
REMARK  status: ('A' for Active; 'I' for Inactive)
REMARK    1  A    between atoms: C_2  and  N_4 
REMARK    2  A    between atoms: N_4  and  C_5 
REMARK    3  A    between atoms: C_12  and  C_13 
ROOT
ATOM      1  C   UNL d   1       8.522   5.644 -10.408  0.00  0.00     0.291 C 
ATOM      2  C   UNL d   1       8.393   4.637  -9.271  0.00  0.00     0.185 C 
ATOM      3  O   UNL d   1       8.266   5.346  -8.041  0.00  0.00    -0.329 OA
ATOM      4  C   UNL d   1       9.184   6.350  -7.791  0.00  0.00     0.090 A 
ATOM      5  C   UNL d   1       9.357   6.791  -6.461  0.00  0.00     0.024 A 
ATOM      6  C   UNL d   1      10.304   7.771  -6.122  0.00  0.00     0.002 A 
ATOM      7  C   UNL d   1      11.103   8.329  -7.128  0.00  0.00     0.005 A 
ATOM      8  C   UNL d   1      10.936   7.913  -8.465  0.00  0.00     0.057 A 
ATOM      9  C   UNL d   1       9.969   6.941  -8.808  0.00  0.00     0.007 A 
ATOM     10  C   UNL d   1       9.764   6.496 -10.249  0.00  0.00     0.067 C 
ENDROOT
BRANCH   1  11
ATOM     11  N   UNL d   1       8.528   5.012 -11.729  0.00  0.00     0.338 N 
BRANCH  11  12
ATOM     12  C   UNL d   1       7.201   4.870 -12.326  0.00  0.00     0.257 C 
ATOM     13  C   UNL d   1       7.358   4.072 -13.633  0.00  0.00     0.038 C 
ATOM     14  C   UNL d   1       6.545   6.238 -12.615  0.00  0.00     0.038 C 
ENDBRANCH  11  12
ENDBRANCH   1  11
BRANCH   8  15
ATOM     15  C   UNL d   1      11.767   8.553  -9.518  0.00  0.00     0.296 C 
ATOM     16  N   UNL d   1      13.067   8.383  -9.387  0.00  0.00    -0.102 N 
ATOM     17  O   UNL d   1      11.263   9.172 -10.446  0.00  0.00    -0.264 OA
ENDBRANCH   8  15
TORSDOF 3
