REMARK  4 active torsions:
REMARK  status: ('A' for Active; 'I' for Inactive)
REMARK    1  A    between atoms: O_2  and  P_3 
REMARK    2  A    between atoms: P_3  and  O_5 
REMARK    3  A    between atoms: P_3  and  O_7 
REMARK    4  A    between atoms: O_7  and  C_8 
ROOT
ATOM      1  P   UNL d   1       8.848   5.890 -11.960  0.00  0.00     0.484 P 
ATOM      2  O   UNL d   1       7.445   5.387 -11.954  0.00  0.00    -0.227 OA
ENDROOT
BRANCH   1   3
ATOM      3  O   UNL d   1       9.089   7.356 -12.613  0.00  0.00    -0.271 OA
ATOM      4  C   UNL d   1       8.506   8.521 -12.069  0.00  0.00     0.186 C 
ENDBRANCH   1   3
BRANCH   1   5
ATOM      5  O   UNL d   1       9.897   4.990 -12.813  0.00  0.00    -0.271 OA
ATOM      6  C   UNL d   1       9.815   3.582 -12.711  0.00  0.00     0.186 C 
ENDBRANCH   1   5
BRANCH   1   7
ATOM      7  O   UNL d   1       9.605   6.014 -10.527  0.00  0.00    -0.244 OA
BRANCH   7   8
ATOM      8  C   UNL d   1       8.918   6.291  -9.383  0.00  0.00     0.150 C 
ATOM      9  C   UNL d   1       9.508   6.799  -8.291  0.00  0.00     0.140 C 
ATOM     10 CL   UNL d   1       8.655   7.110  -6.831  0.00  0.00    -0.068 Cl
ATOM     11 CL   UNL d   1      11.181   7.212  -8.185  0.00  0.00    -0.068 Cl
ENDBRANCH   7   8
ENDBRANCH   1   7
TORSDOF 4
