REMARK  10 active torsions:
REMARK  status: ('A' for Active; 'I' for Inactive)
REMARK    1  A    between atoms: C_5  and  C_6 
REMARK    2  A    between atoms: C_6  and  S_7 
REMARK    3  A    between atoms: C_6  and  C_20 
REMARK    4  A    between atoms: S_7  and  C_8 
REMARK    5  A    between atoms: C_8  and  C_9 
REMARK    6  A    between atoms: C_9  and  N_10 
REMARK    7  A    between atoms: N_10  and  C_11 
REMARK    8  A    between atoms: C_11  and  C_12 
REMARK    9  A    between atoms: C_12  and  C_13 
REMARK   10  A    between atoms: C_13  and  C_14 
ROOT
ATOM      1  C   UNL d   1       8.443   3.469 -13.566  0.00  0.00     0.092 C 
ENDROOT
BRANCH   1   2
ATOM      2  C   UNL d   1       7.576   2.304 -14.100  0.00  0.00    -0.008 A 
ATOM      3  C   UNL d   1       8.108   1.356 -15.010  0.00  0.00    -0.001 A 
ATOM      4  C   UNL d   1       7.336   0.267 -15.454  0.00  0.00     0.029 A 
ATOM      5  C   UNL d   1       6.029   0.076 -14.981  0.00  0.00     0.140 A 
ATOM      6  F   UNL d   1       5.288  -0.972 -15.409  0.00  0.00    -0.204 F 
ATOM      7  C   UNL d   1       5.495   0.978 -14.047  0.00  0.00     0.029 A 
ATOM      8  C   UNL d   1       6.253   2.094 -13.637  0.00  0.00    -0.001 A 
ENDBRANCH   1   2
BRANCH   1   9
ATOM      9  S   UNL d   1       7.379   4.895 -13.170  0.00  0.00    -0.130 SA
BRANCH   9  10
ATOM     10  C   UNL d   1       8.411   5.969 -12.135  0.00  0.00     0.096 C 
BRANCH  10  11
ATOM     11  C   UNL d   1       8.531   5.408 -10.711  0.00  0.00     0.302 C 
BRANCH  11  12
ATOM     12  N   UNL d   1       9.236   6.364  -9.886  0.00  0.00     0.340 N 
BRANCH  12  13
ATOM     13  C   UNL d   1       9.440   5.812  -8.556  0.00  0.00     0.291 C 
BRANCH  13  14
ATOM     14  C   UNL d   1      10.072   6.917  -7.703  0.00  0.00     0.043 C 
BRANCH  14  15
ATOM     15  C   UNL d   1      10.474   6.466  -6.290  0.00  0.00     0.029 C 
BRANCH  15  16
ATOM     16  C   UNL d   1      11.041   7.558  -5.398  0.00  0.00    -0.022 A 
ATOM     17  C   UNL d   1      11.746   7.206  -4.224  0.00  0.00    -0.004 A 
ATOM     18  C   UNL d   1      12.252   8.207  -3.369  0.00  0.00    -0.000 A 
ATOM     19  C   UNL d   1      12.032   9.563  -3.675  0.00  0.00    -0.000 A 
ATOM     20  C   UNL d   1      11.331   9.917  -4.845  0.00  0.00    -0.000 A 
ATOM     21  C   UNL d   1      10.833   8.921  -5.702  0.00  0.00    -0.004 A 
ENDBRANCH  15  16
ENDBRANCH  14  15
ENDBRANCH  13  14
ENDBRANCH  12  13
ENDBRANCH  11  12
ENDBRANCH  10  11
ENDBRANCH   9  10
ENDBRANCH   1   9
BRANCH   1  22
ATOM     22  C   UNL d   1       9.612   3.842 -14.489  0.00  0.00    -0.008 A 
ATOM     23  C   UNL d   1      10.813   3.100 -14.430  0.00  0.00    -0.001 A 
ATOM     24  C   UNL d   1      11.867   3.386 -15.316  0.00  0.00     0.029 A 
ATOM     25  C   UNL d   1      11.767   4.438 -16.243  0.00  0.00     0.140 A 
ATOM     26  C   UNL d   1      10.582   5.183 -16.311  0.00  0.00     0.029 A 
ATOM     27  F   UNL d   1      12.803   4.723 -17.067  0.00  0.00    -0.204 F 
ATOM     28  C   UNL d   1       9.508   4.870 -15.455  0.00  0.00    -0.001 A 
ENDBRANCH   1  22
TORSDOF 10
