REMARK  8 active torsions:
REMARK  status: ('A' for Active; 'I' for Inactive)
REMARK    1  A    between atoms: O_2  and  C_3 
REMARK    2  A    between atoms: C_7  and  C_8 
REMARK       I    between atoms: C_8  and  N_10 
REMARK    3  A    between atoms: N_10  and  C_11 
REMARK    4  A    between atoms: C_11  and  C_12 
REMARK    5  A    between atoms: C_12  and  C_13 
REMARK    6  A    between atoms: C_13  and  C_14 
REMARK    7  A    between atoms: C_14  and  N_15 
REMARK    8  A    between atoms: N_18  and  C_19 
ROOT
ATOM      1  C   UNL d   1       9.391   5.997  -9.580  0.00  0.00     0.251 C 
ENDROOT
BRANCH   1   2
ATOM      2  C   UNL d   1       9.434   6.353 -11.062  0.00  0.00     0.037 C 
BRANCH   2   3
ATOM      3  C   UNL d   1       9.251   5.107 -11.949  0.00  0.00     0.029 C 
BRANCH   3   4
ATOM      4  C   UNL d   1       9.322   5.413 -13.455  0.00  0.00     0.129 C 
BRANCH   4   5
ATOM      5  N   UNL d   1       9.188   4.223 -14.289  0.00  0.00    -0.234 NA
ATOM      6  C   UNL d   1      10.173   3.362 -14.586  0.00  0.00     0.275 C 
ATOM      7  O   UNL d   1      11.305   3.429 -14.099  0.00  0.00    -0.266 OA
BRANCH   6   8
ATOM      8  C   UNL d   1       9.784   2.228 -15.500  0.00  0.00     0.059 A 
ATOM      9  C   UNL d   1      10.276   0.934 -15.225  0.00  0.00     0.005 A 
ATOM     10  C   UNL d   1       9.963  -0.128 -16.080  0.00  0.00     0.002 A 
ATOM     11  C   UNL d   1       9.181   0.083 -17.224  0.00  0.00     0.024 A 
ATOM     12  C   UNL d   1       8.680   1.381 -17.542  0.00  0.00     0.094 A 
ATOM     13  C   UNL d   1       9.007   2.444 -16.671  0.00  0.00     0.029 A 
BRANCH  12  14
ATOM     14  O   UNL d   1       7.906   1.688 -18.649  0.00  0.00    -0.328 OA
ATOM     15  C   UNL d   1       7.577   0.618 -19.527  0.00  0.00     0.181 C 
ENDBRANCH  12  14
ENDBRANCH   6   8
ENDBRANCH   4   5
ENDBRANCH   3   4
ENDBRANCH   2   3
ENDBRANCH   1   2
BRANCH   1  16
ATOM     16  N   UNL d   1       9.651   7.189  -8.767  0.00  0.00     0.141 N 
ATOM     17  C   UNL d   1       8.960   7.029  -7.480  0.00  0.00     0.274 C 
ATOM     18  C   UNL d   1       9.144   8.283  -6.621  0.00  0.00     0.137 C 
ATOM     19  N   UNL d   1      10.560   8.550  -6.419  0.00  0.00    -0.344 N 
ATOM     20  C   UNL d   1      11.377   8.591  -7.629  0.00  0.00     0.137 C 
ATOM     21  C   UNL d   1      11.091   7.361  -8.530  0.00  0.00     0.274 C 
BRANCH  19  22
ATOM     22  C   UNL d   1      11.121   8.614  -5.146  0.00  0.00     0.052 A 
ATOM     23  C   UNL d   1      11.615   7.502  -4.408  0.00  0.00    -0.010 A 
ATOM     24  C   UNL d   1      12.156   7.636  -3.107  0.00  0.00    -0.024 A 
ATOM     25  C   UNL d   1      11.532   6.132  -4.983  0.00  0.00     0.032 C 
ATOM     26  C   UNL d   1      12.253   8.898  -2.523  0.00  0.00    -0.004 A 
ATOM     27  C   UNL d   1      12.613   6.453  -2.283  0.00  0.00     0.031 C 
ATOM     28  C   UNL d   1      11.751   9.991  -3.240  0.00  0.00     0.001 A 
ATOM     29  C   UNL d   1      11.198   9.871  -4.524  0.00  0.00     0.017 A 
ENDBRANCH  19  22
ENDBRANCH   1  16
TORSDOF 8
