REMARK  8 active torsions:
REMARK  status: ('A' for Active; 'I' for Inactive)
REMARK    1  A    between atoms: N_14  and  C_15 
REMARK    2  A    between atoms: C_15  and  C_16 
REMARK    3  A    between atoms: C_16  and  C_17 
REMARK    4  A    between atoms: C_17  and  C_18 
REMARK    5  A    between atoms: C_18  and  C_19 
REMARK    6  A    between atoms: C_19  and  C_20 
REMARK    7  A    between atoms: C_20  and  N_21 
REMARK    8  A    between atoms: N_24  and  C_25 
ROOT
ATOM      1  C   UNL d   1      10.660   1.615 -16.739  0.00  0.00     0.002 C 
ENDROOT
BRANCH   1   2
ATOM      2  C   UNL d   1       9.572   0.869 -17.537  0.00  0.00     0.025 C 
BRANCH   2   3
ATOM      3  C   UNL d   1       8.219   1.624 -17.635  0.00  0.00     0.118 C 
BRANCH   3   4
ATOM      4  N   UNL d   1       7.181   0.758 -18.155  0.00  0.00    -0.254 N 
ATOM      5  S   UNL d   1       7.062   0.376 -19.824  0.00  0.00     0.268 S 
ATOM      6  O   UNL d   1       8.313  -0.330 -20.189  0.00  0.00    -0.200 OA
ATOM      7  O   UNL d   1       6.567   1.575 -20.487  0.00  0.00    -0.200 OA
ATOM      8  C   UNL d   1       5.763  -0.765 -19.441  0.00  0.00     0.105 A 
ATOM      9  C   UNL d   1       5.483  -0.815 -18.068  0.00  0.00     0.029 A 
ATOM     10  C   UNL d   1       5.053  -1.577 -20.325  0.00  0.00     0.013 A 
ATOM     11  C   UNL d   1       4.495  -1.651 -17.513  0.00  0.00     0.002 A 
ATOM     12  C   UNL d   1       6.295   0.048 -17.329  0.00  0.00     0.071 A 
ATOM     13  C   UNL d   1       3.785  -2.463 -18.421  0.00  0.00     0.000 A 
ATOM     14  C   UNL d   1       4.325  -1.603 -16.112  0.00  0.00     0.000 A 
ATOM     15  C   UNL d   1       4.060  -2.430 -19.805  0.00  0.00     0.001 A 
ATOM     16  C   UNL d   1       5.122  -0.747 -15.324  0.00  0.00     0.002 A 
ATOM     17  C   UNL d   1       6.101   0.077 -15.923  0.00  0.00     0.018 A 
ENDBRANCH   3   4
ENDBRANCH   2   3
ENDBRANCH   1   2
BRANCH   1  18
ATOM     18  C   UNL d   1      10.551   1.400 -15.213  0.00  0.00     0.002 C 
BRANCH  18  19
ATOM     19  C   UNL d   1       9.355   2.088 -14.550  0.00  0.00     0.035 C 
BRANCH  19  20
ATOM     20  C   UNL d   1       9.459   3.626 -14.630  0.00  0.00     0.250 C 
BRANCH  20  21
ATOM     21  N   UNL d   1       8.889   4.225 -13.423  0.00  0.00     0.141 N 
ATOM     22  C   UNL d   1       9.757   3.892 -12.286  0.00  0.00     0.274 C 
ATOM     23  C   UNL d   1       9.194   4.488 -11.005  0.00  0.00     0.137 C 
ATOM     24  N   UNL d   1       9.072   5.916 -11.161  0.00  0.00    -0.344 N 
ATOM     25  C   UNL d   1       8.304   6.357 -12.303  0.00  0.00     0.137 C 
ATOM     26  C   UNL d   1       8.875   5.684 -13.565  0.00  0.00     0.274 C 
BRANCH  24  27
ATOM     27  C   UNL d   1       9.580   6.838 -10.194  0.00  0.00     0.068 A 
ATOM     28  C   UNL d   1       9.461   6.617  -8.816  0.00  0.00     0.084 A 
ATOM     29  C   UNL d   1      10.006   7.555  -7.895  0.00  0.00     0.070 A 
ATOM     30 CL   UNL d   1       8.636   5.266  -8.153  0.00  0.00    -0.080 Cl
ATOM     31  C   UNL d   1      10.650   8.706  -8.367  0.00  0.00     0.012 A 
ATOM     32 CL   UNL d   1       9.881   7.305  -6.196  0.00  0.00    -0.081 Cl
ATOM     33  C   UNL d   1      10.759   8.933  -9.742  0.00  0.00     0.002 A 
ATOM     34  C   UNL d   1      10.201   8.005 -10.652  0.00  0.00     0.018 A 
ENDBRANCH  24  27
ENDBRANCH  20  21
ENDBRANCH  19  20
ENDBRANCH  18  19
ENDBRANCH   1  18
TORSDOF 8
