REMARK  1 active torsions:
REMARK  status: ('A' for Active; 'I' for Inactive)
REMARK    1  A    between atoms: C_5  and  C_6 
ROOT
ATOM      1  C   UNL d   1       7.877   1.030 -16.825  0.00  0.00    -0.023 C 
ATOM      2  C   UNL d   1       8.039   1.803 -15.727  0.00  0.00    -0.005 C 
ATOM      3  C   UNL d   1       7.117   2.011 -14.616  0.00  0.00    -0.003 A 
ATOM      4  C   UNL d   1       7.096   3.293 -14.039  0.00  0.00     0.011 A 
ATOM      5  C   UNL d   1       6.236   3.575 -12.966  0.00  0.00     0.058 A 
ATOM      6 CL   UNL d   1       6.215   5.163 -12.297  0.00  0.00    -0.082 Cl
ATOM      7  C   UNL d   1       5.418   2.549 -12.453  0.00  0.00     0.011 A 
ATOM      8  C   UNL d   1       5.459   1.256 -13.014  0.00  0.00    -0.003 A 
ATOM      9  C   UNL d   1       6.304   0.982 -14.098  0.00  0.00    -0.018 A 
ATOM     10  C   UNL d   1       6.367  -0.417 -14.684  0.00  0.00     0.053 C 
ATOM     11  C   UNL d   1       5.888  -0.410 -16.119  0.00  0.00    -0.018 A 
ATOM     12  C   UNL d   1       4.698  -1.098 -16.445  0.00  0.00    -0.004 A 
ATOM     13  C   UNL d   1       4.218  -1.100 -17.767  0.00  0.00    -0.000 A 
ATOM     14  C   UNL d   1       4.922  -0.405 -18.767  0.00  0.00    -0.000 A 
ATOM     15  C   UNL d   1       6.108   0.279 -18.443  0.00  0.00    -0.001 A 
ATOM     16  C   UNL d   1       6.615   0.287 -17.120  0.00  0.00    -0.008 A 
ENDROOT
BRANCH   1  17
ATOM     17  C   UNL d   1       9.052   0.787 -17.795  0.00  0.00     0.026 C 
ATOM     18  C   UNL d   1       9.391  -0.712 -17.913  0.00  0.00     0.040 C 
ATOM     19  C   UNL d   1      10.615  -0.940 -18.816  0.00  0.00     0.251 C 
ATOM     20  N   UNL d   1      11.771  -0.207 -18.306  0.00  0.00     0.139 N 
ATOM     21  C   UNL d   1      12.942  -0.489 -19.128  0.00  0.00     0.285 C 
ATOM     22  C   UNL d   1      11.510   1.226 -18.348  0.00  0.00     0.251 C 
ATOM     23  C   UNL d   1      10.339   1.546 -17.411  0.00  0.00     0.040 C 
ENDBRANCH   1  17
TORSDOF 1
