REMARK  1 active torsions:
REMARK  status: ('A' for Active; 'I' for Inactive)
REMARK    1  A    between atoms: C_10  and  N_11 
ROOT
ATOM      1  C   UNL d   1       6.943  -0.918 -13.511  0.00  0.00     0.009 C 
ATOM      2  C   UNL d   1       5.809  -0.010 -13.935  0.00  0.00     0.045 C 
ATOM      3  C   UNL d   1       5.379  -0.303 -15.356  0.00  0.00    -0.018 A 
ATOM      4  C   UNL d   1       4.126  -0.914 -15.551  0.00  0.00    -0.004 A 
ATOM      5  C   UNL d   1       3.690  -1.241 -16.846  0.00  0.00    -0.000 A 
ATOM      6  C   UNL d   1       4.473  -0.905 -17.965  0.00  0.00    -0.000 A 
ATOM      7  C   UNL d   1       5.735  -0.312 -17.776  0.00  0.00    -0.000 A 
ATOM      8  C   UNL d   1       6.202  -0.013 -16.477  0.00  0.00    -0.002 A 
ATOM      9  C   UNL d   1       7.531   0.600 -16.374  0.00  0.00     0.017 C 
ATOM     10  C   UNL d   1       7.984   1.513 -15.484  0.00  0.00     0.056 C 
ATOM     11  C   UNL d   1       7.131   2.146 -14.440  0.00  0.00     0.012 A 
ATOM     12  C   UNL d   1       7.330   3.523 -14.171  0.00  0.00     0.001 A 
ATOM     13  C   UNL d   1       6.561   4.218 -13.224  0.00  0.00     0.000 A 
ATOM     14  C   UNL d   1       5.611   3.523 -12.478  0.00  0.00    -0.000 A 
ATOM     15  C   UNL d   1       5.396   2.160 -12.734  0.00  0.00    -0.004 A 
ATOM     16  C   UNL d   1       6.126   1.460 -13.719  0.00  0.00    -0.017 A 
ENDROOT
BRANCH  10  17
ATOM     17  N   UNL d   1       9.339   1.852 -15.451  0.00  0.00    -0.344 N 
ATOM     18  C   UNL d   1      10.180   1.968 -16.639  0.00  0.00     0.137 C 
ATOM     19  C   UNL d   1      10.881   3.337 -16.675  0.00  0.00     0.274 C 
ATOM     20  N   UNL d   1      11.694   3.513 -15.474  0.00  0.00     0.143 N 
ATOM     21  C   UNL d   1      10.819   3.478 -14.307  0.00  0.00     0.274 C 
ATOM     22  C   UNL d   1      12.377   4.794 -15.536  0.00  0.00     0.286 C 
ATOM     23  C   UNL d   1      10.116   2.108 -14.236  0.00  0.00     0.137 C 
ENDBRANCH  10  17
TORSDOF 1
