REMARK  5 active torsions:
REMARK  status: ('A' for Active; 'I' for Inactive)
REMARK    1  A    between atoms: O_2  and  C_3 
REMARK    2  A    between atoms: C_9  and  N_10 
REMARK    3  A    between atoms: N_13  and  C_14 
REMARK    4  A    between atoms: C_14  and  C_15 
REMARK    5  A    between atoms: C_17  and  C_18 
ROOT
ATOM      1  N   UNL d   1       7.734   5.028 -12.614  0.00  0.00    -0.343 N 
ATOM      2  C   UNL d   1       7.577   4.862 -11.192  0.00  0.00     0.137 C 
ATOM      3  C   UNL d   1       8.805   5.411 -10.441  0.00  0.00     0.274 C 
ATOM      4  N   UNL d   1       9.091   6.785 -10.856  0.00  0.00     0.141 N 
ATOM      5  C   UNL d   1       9.318   6.875 -12.307  0.00  0.00     0.274 C 
ATOM      6  C   UNL d   1       8.059   6.361 -13.056  0.00  0.00     0.137 C 
ENDROOT
BRANCH   4   7
ATOM      7  C   UNL d   1      10.211   7.361 -10.110  0.00  0.00     0.251 C 
BRANCH   7   8
ATOM      8  C   UNL d   1       9.889   7.495  -8.625  0.00  0.00     0.038 A 
ATOM      9  C   UNL d   1      10.979   7.266  -7.589  0.00  0.00     0.024 A 
ATOM     10  C   UNL d   1       9.847   6.296  -7.682  0.00  0.00     0.007 A 
BRANCH   9  11
ATOM     11  C   UNL d   1      11.147   8.062  -6.356  0.00  0.00    -0.022 A 
ATOM     12  C   UNL d   1      10.969   9.456  -6.394  0.00  0.00    -0.004 A 
ATOM     13  C   UNL d   1      11.074  10.201  -5.212  0.00  0.00    -0.000 A 
ATOM     14  C   UNL d   1      11.434   9.571  -4.005  0.00  0.00    -0.000 A 
ATOM     15  C   UNL d   1      11.652   8.178  -3.969  0.00  0.00    -0.000 A 
ATOM     16  C   UNL d   1      11.477   7.423  -5.143  0.00  0.00    -0.004 A 
ENDBRANCH   9  11
ENDBRANCH   7   8
ENDBRANCH   4   7
BRANCH   1  17
ATOM     17  C   UNL d   1       7.660   3.901 -13.508  0.00  0.00     0.080 A 
ATOM     18  C   UNL d   1       8.667   3.664 -14.458  0.00  0.00     0.110 A 
ATOM     19  C   UNL d   1       8.537   2.534 -15.316  0.00  0.00     0.026 A 
ATOM     20  C   UNL d   1       7.454   1.648 -15.166  0.00  0.00     0.013 A 
ATOM     21  C   UNL d   1       6.502   1.859 -14.151  0.00  0.00     0.059 A 
ATOM     22 CL   UNL d   1       5.312   0.651 -13.831  0.00  0.00    -0.082 Cl
ATOM     23  C   UNL d   1       6.587   3.024 -13.352  0.00  0.00     0.030 A 
BRANCH  18  24
ATOM     24  O   UNL d   1       9.751   4.524 -14.523  0.00  0.00    -0.327 OA
ATOM     25  C   UNL d   1      10.682   4.380 -15.577  0.00  0.00     0.181 C 
ENDBRANCH  18  24
ENDBRANCH   1  17
TORSDOF 5
