REMARK  11 active torsions:
REMARK  status: ('A' for Active; 'I' for Inactive)
REMARK       I    between atoms: C_2  and  N_3 
REMARK    1  A    between atoms: C_2  and  C_24 
REMARK    2  A    between atoms: N_3  and  C_4 
REMARK    3  A    between atoms: C_4  and  C_5 
REMARK    4  A    between atoms: C_5  and  C_6 
REMARK    5  A    between atoms: C_6  and  C_7 
REMARK    6  A    between atoms: C_7  and  N_8 
REMARK    7  A    between atoms: N_11  and  C_12 
REMARK    8  A    between atoms: C_17  and  O_18 
REMARK    9  A    between atoms: O_18  and  C_19 
REMARK   10  A    between atoms: C_19  and  C_20 
REMARK   11  A    between atoms: C_27  and  N_28 
ROOT
ATOM      1  C   UNL d   1       6.369   2.983 -13.831  0.00  0.00     0.037 C 
ENDROOT
BRANCH   1   2
ATOM      2  C   UNL d   1       7.077   3.682 -12.671  0.00  0.00     0.029 C 
BRANCH   2   3
ATOM      3  C   UNL d   1       6.999   5.213 -12.729  0.00  0.00     0.129 C 
BRANCH   3   4
ATOM      4  N   UNL d   1       7.676   5.818 -11.591  0.00  0.00    -0.234 NA
ATOM      5  C   UNL d   1       9.007   5.941 -11.467  0.00  0.00     0.275 C 
ATOM      6  O   UNL d   1       9.812   5.609 -12.337  0.00  0.00    -0.266 OA
BRANCH   5   7
ATOM      7  C   UNL d   1       9.461   6.533 -10.167  0.00  0.00     0.058 A 
ATOM      8  C   UNL d   1      10.317   7.656 -10.156  0.00  0.00     0.006 A 
ATOM      9  C   UNL d   1      10.767   8.196  -8.936  0.00  0.00     0.018 A 
ATOM     10  C   UNL d   1      10.352   7.630  -7.709  0.00  0.00     0.066 A 
ATOM     11  C   UNL d   1       9.499   6.504  -7.724  0.00  0.00     0.018 A 
ATOM     12  C   UNL d   1       9.055   5.962  -8.945  0.00  0.00     0.006 A 
BRANCH  10  13
ATOM     13  N   UNL d   1      10.817   8.134  -6.467  0.00  0.00    -0.287 N 
ATOM     14  C   UNL d   1      11.064   9.441  -6.294  0.00  0.00     0.183 A 
ATOM     15  N   UNL d   1      11.460   9.740  -5.065  0.00  0.00    -0.222 NA
ATOM     16  C   UNL d   1      11.476   8.514  -4.401  0.00  0.00     0.120 A 
ATOM     17  C   UNL d   1      11.060   7.512  -5.249  0.00  0.00     0.102 A 
ENDBRANCH  10  13
ENDBRANCH   5   7
ENDBRANCH   3   4
ENDBRANCH   2   3
ENDBRANCH   1   2
BRANCH   1  18
ATOM     18  C   UNL d   1       6.567   1.449 -13.818  0.00  0.00     0.251 C 
BRANCH  18  19
ATOM     19  N   UNL d   1       5.815   0.790 -14.878  0.00  0.00     0.141 N 
ATOM     20  C   UNL d   1       5.764  -0.664 -14.653  0.00  0.00     0.274 C 
ATOM     21  C   UNL d   1       4.935  -1.371 -15.755  0.00  0.00     0.137 C 
ATOM     22  N   UNL d   1       5.453  -1.028 -17.080  0.00  0.00    -0.343 N 
ATOM     23  C   UNL d   1       5.625   0.402 -17.315  0.00  0.00     0.137 C 
ATOM     24  C   UNL d   1       6.447   1.034 -16.182  0.00  0.00     0.274 C 
BRANCH  22  25
ATOM     25  C   UNL d   1       5.864  -2.005 -17.996  0.00  0.00     0.079 A 
ATOM     26  C   UNL d   1       7.074  -1.881 -18.758  0.00  0.00     0.110 A 
ATOM     27  C   UNL d   1       7.407  -2.896 -19.684  0.00  0.00     0.026 A 
ATOM     28  C   UNL d   1       6.585  -4.019 -19.864  0.00  0.00     0.002 A 
ATOM     29  C   UNL d   1       5.407  -4.151 -19.110  0.00  0.00     0.002 A 
ATOM     30  C   UNL d   1       5.057  -3.154 -18.185  0.00  0.00     0.019 A 
BRANCH  26  31
ATOM     31  O   UNL d   1       7.857  -0.761 -18.545  0.00  0.00    -0.326 OA
BRANCH  31  32
ATOM     32  C   UNL d   1       9.150  -0.635 -19.119  0.00  0.00     0.187 C 
BRANCH  32  33
ATOM     33  C   UNL d   1      10.147  -1.391 -18.237  0.00  0.00     0.226 C 
ATOM     34  F   UNL d   1      10.258  -0.793 -17.050  0.00  0.00    -0.232 F 
ENDBRANCH  32  33
ENDBRANCH  31  32
ENDBRANCH  26  31
ENDBRANCH  22  25
ENDBRANCH  18  19
ENDBRANCH   1  18
TORSDOF 11
