REMARK  6 active torsions:
REMARK  status: ('A' for Active; 'I' for Inactive)
REMARK    1  A    between atoms: N_12  and  C_13 
REMARK    2  A    between atoms: C_13  and  C_14 
REMARK    3  A    between atoms: C_14  and  C_15 
REMARK    4  A    between atoms: C_15  and  C_16 
REMARK    5  A    between atoms: C_16  and  N_17 
REMARK    6  A    between atoms: N_20  and  C_21 
ROOT
ATOM      1  C   UNL d   1       7.203   0.166 -16.246  0.00  0.00     0.027 C 
ENDROOT
BRANCH   1   2
ATOM      2  C   UNL d   1       7.718  -0.139 -17.679  0.00  0.00     0.112 C 
BRANCH   2   3
ATOM      3  N   UNL d   1       9.048   0.452 -17.981  0.00  0.00    -0.271 N 
ATOM      4  C   UNL d   1       9.076   1.706 -18.538  0.00  0.00     0.239 C 
ATOM      5  O   UNL d   1       8.056   2.316 -18.851  0.00  0.00    -0.272 OA
ATOM      6  C   UNL d   1      10.403   2.433 -18.790  0.00  0.00     0.089 C 
ATOM      7  C   UNL d   1      11.565   1.894 -17.930  0.00  0.00     0.018 C 
ATOM      8  C   UNL d   1      12.926   2.407 -18.431  0.00  0.00     0.001 C 
ATOM      9  C   UNL d   1      11.511   2.458 -16.492  0.00  0.00     0.001 C 
ATOM     10  C   UNL d   1      11.547   0.366 -17.992  0.00  0.00     0.089 C 
ATOM     11  C   UNL d   1      13.263   3.678 -17.648  0.00  0.00     0.000 C 
ATOM     12  C   UNL d   1      12.237   3.787 -16.509  0.00  0.00     0.000 C 
ATOM     13  C   UNL d   1      10.167  -0.240 -17.689  0.00  0.00     0.239 C 
ATOM     14  O   UNL d   1      10.173  -1.375 -17.190  0.00  0.00    -0.272 OA
ENDBRANCH   2   3
ENDBRANCH   1   2
BRANCH   1  15
ATOM     15  C   UNL d   1       7.195   1.658 -15.862  0.00  0.00     0.037 C 
BRANCH  15  16
ATOM     16  C   UNL d   1       6.736   1.938 -14.424  0.00  0.00     0.251 C 
BRANCH  16  17
ATOM     17  N   UNL d   1       7.052   3.313 -14.030  0.00  0.00     0.141 N 
ATOM     18  C   UNL d   1       8.497   3.506 -13.793  0.00  0.00     0.275 C 
ATOM     19  C   UNL d   1       8.803   4.955 -13.399  0.00  0.00     0.155 C 
ATOM     20  N   UNL d   1       8.047   5.300 -12.214  0.00  0.00    -0.179 N 
ATOM     21  C   UNL d   1       6.617   5.067 -12.322  0.00  0.00     0.155 C 
ATOM     22  C   UNL d   1       6.335   3.625 -12.785  0.00  0.00     0.275 C 
BRANCH  20  23
ATOM     23  C   UNL d   1       8.649   5.811 -11.088  0.00  0.00     0.727 A 
ATOM     24  N   UNL d   1       9.461   6.849 -11.267  0.00  0.00    -0.060 NA
ATOM     25  C   UNL d   1      10.039   7.366 -10.170  0.00  0.00     0.120 A 
ATOM     26  C   UNL d   1       9.844   6.806  -8.892  0.00  0.00     0.043 A 
ATOM     27  C   UNL d   1       8.976   5.701  -8.837  0.00  0.00     0.120 A 
ATOM     28  N   UNL d   1       8.396   5.192  -9.934  0.00  0.00    -0.060 NA
ENDBRANCH  20  23
ENDBRANCH  16  17
ENDBRANCH  15  16
ENDBRANCH   1  15
TORSDOF 6
