REMARK  9 active torsions:
REMARK  status: ('A' for Active; 'I' for Inactive)
REMARK    1  A    between atoms: C_2  and  C_3 
REMARK    2  A    between atoms: C_3  and  N_4 
REMARK    3  A    between atoms: N_4  and  C_5 
REMARK    4  A    between atoms: N_4  and  C_21 
REMARK    5  A    between atoms: C_5  and  C_6 
REMARK    6  A    between atoms: C_6  and  C_7 
REMARK    7  A    between atoms: C_7  and  C_8 
REMARK    8  A    between atoms: C_8  and  N_9 
REMARK    9  A    between atoms: C_28  and  O_29 
ROOT
ATOM      1  N   UNL d   1       8.320   3.997 -12.512  0.00  0.00     0.138 N 
ENDROOT
BRANCH   1   2
ATOM      2  C   UNL d   1       6.945   4.410 -12.826  0.00  0.00     0.250 C 
BRANCH   2   3
ATOM      3  C   UNL d   1       6.022   3.212 -13.110  0.00  0.00     0.035 C 
ATOM      4  C   UNL d   1       4.605   3.742 -13.043  0.00  0.00     0.002 C 
ENDBRANCH   2   3
ENDBRANCH   1   2
BRANCH   1   5
ATOM      5  C   UNL d   1       8.968   3.199 -13.541  0.00  0.00     0.250 C 
BRANCH   5   6
ATOM      6  C   UNL d   1       9.440   4.019 -14.767  0.00  0.00     0.037 C 
BRANCH   6   7
ATOM      7  C   UNL d   1       9.978   3.228 -15.944  0.00  0.00     0.027 C 
BRANCH   7   8
ATOM      8  C   UNL d   1      10.360   4.243 -17.046  0.00  0.00     0.112 C 
BRANCH   8   9
ATOM      9  N   UNL d   1      10.965   3.555 -18.184  0.00  0.00    -0.271 N 
ATOM     10  C   UNL d   1      12.320   3.442 -18.238  0.00  0.00     0.239 C 
ATOM     11  C   UNL d   1      12.985   2.685 -19.391  0.00  0.00     0.089 C 
ATOM     12  O   UNL d   1      13.048   3.922 -17.393  0.00  0.00    -0.272 OA
ATOM     13  C   UNL d   1      12.075   1.601 -19.991  0.00  0.00     0.018 C 
ATOM     14  C   UNL d   1      10.693   2.206 -20.259  0.00  0.00     0.089 C 
ATOM     15  C   UNL d   1      12.641   1.039 -21.299  0.00  0.00     0.001 C 
ATOM     16  C   UNL d   1      12.029   0.346 -19.074  0.00  0.00     0.001 C 
ATOM     17  C   UNL d   1      10.127   2.961 -19.081  0.00  0.00     0.239 C 
ATOM     18  O   UNL d   1       8.907   3.022 -18.949  0.00  0.00    -0.272 OA
ATOM     19  C   UNL d   1      13.636  -0.057 -20.902  0.00  0.00     0.000 C 
ATOM     20  C   UNL d   1      13.118  -0.626 -19.567  0.00  0.00     0.000 C 
ENDBRANCH   8   9
ENDBRANCH   7   8
ENDBRANCH   6   7
ENDBRANCH   5   6
ENDBRANCH   1   5
BRANCH   1  21
ATOM     21  C   UNL d   1       9.108   5.110 -11.918  0.00  0.00     0.254 C 
ATOM     22  C   UNL d   1       8.850   5.272 -10.416  0.00  0.00     0.066 C 
ATOM     23  C   UNL d   1       9.451   6.586  -9.900  0.00  0.00     0.024 C 
ATOM     24  C   UNL d   1       9.861   7.583 -10.816  0.00  0.00     0.092 C 
ATOM     25  C   UNL d   1       9.475   6.901  -8.516  0.00  0.00     0.092 C 
ATOM     26  O   UNL d   1       9.674   7.481 -12.161  0.00  0.00    -0.329 OA
ATOM     27  C   UNL d   1      10.459   8.756 -10.382  0.00  0.00     0.024 C 
ATOM     28  C   UNL d   1       8.822   6.472 -12.590  0.00  0.00     0.182 C 
ATOM     29  C   UNL d   1      10.536   9.054  -9.032  0.00  0.00     0.004 C 
ATOM     30  C   UNL d   1      10.030   8.152  -8.093  0.00  0.00     0.024 C 
BRANCH  25  31
ATOM     31  O   UNL d   1       8.949   5.981  -7.658  0.00  0.00    -0.328 OA
ATOM     32  C   UNL d   1       8.514   6.484  -6.434  0.00  0.00     0.181 C 
ENDBRANCH  25  31
ENDBRANCH   1  21
TORSDOF 9
