REMARK  5 active torsions:
REMARK  status: ('A' for Active; 'I' for Inactive)
REMARK    1  A    between atoms: N_3  and  C_4 
REMARK    2  A    between atoms: C_4  and  C_5 
REMARK    3  A    between atoms: C_5  and  N_6 
REMARK    4  A    between atoms: N_17  and  C_18 
REMARK    5  A    between atoms: C_18  and  C_19 
ROOT
ATOM      1  O   UNL d   1      10.263   5.257 -12.383  0.00  0.00    -0.247 OA
ATOM      2  C   UNL d   1       9.064   5.024 -12.231  0.00  0.00     0.324 A 
ATOM      3  N   UNL d   1       8.355   5.052 -11.094  0.00  0.00    -0.299 N 
ATOM      4  C   UNL d   1       6.949   4.759 -11.309  0.00  0.00     0.130 A 
ATOM      5  C   UNL d   1       6.865   4.504 -12.790  0.00  0.00     0.130 A 
ATOM      6  N   UNL d   1       8.243   4.687 -13.224  0.00  0.00    -0.297 N 
ENDROOT
BRANCH   3   7
ATOM      7  C   UNL d   1       8.847   5.361  -9.755  0.00  0.00     0.141 C 
BRANCH   7   8
ATOM      8  C   UNL d   1       9.470   6.766  -9.738  0.00  0.00     0.275 C 
BRANCH   8   9
ATOM      9  N   UNL d   1       9.630   7.262  -8.384  0.00  0.00     0.148 N 
ATOM     10  C   UNL d   1      10.453   6.421  -7.515  0.00  0.00     0.277 C 
ATOM     11  C   UNL d   1      10.870   7.379  -6.441  0.00  0.00     0.009 A 
ATOM     12  C   UNL d   1      10.728   8.668  -6.922  0.00  0.00     0.009 A 
ATOM     13  C   UNL d   1      11.347   7.115  -5.148  0.00  0.00    -0.003 A 
ATOM     14  C   UNL d   1      10.214   8.603  -8.332  0.00  0.00     0.277 C 
ATOM     15  C   UNL d   1      11.059   9.785  -6.141  0.00  0.00    -0.003 A 
ATOM     16  C   UNL d   1      11.539   9.547  -4.834  0.00  0.00    -0.000 A 
ATOM     17  C   UNL d   1      11.688   8.225  -4.343  0.00  0.00    -0.000 A 
ENDBRANCH   8   9
ENDBRANCH   7   8
ENDBRANCH   3   7
BRANCH   6  18
ATOM     18  C   UNL d   1       8.730   4.567 -14.600  0.00  0.00     0.133 C 
BRANCH  18  19
ATOM     19  C   UNL d   1       8.664   3.147 -15.154  0.00  0.00     0.001 A 
ATOM     20  C   UNL d   1       9.780   2.639 -15.857  0.00  0.00     0.009 A 
ATOM     21  C   UNL d   1       9.752   1.318 -16.377  0.00  0.00     0.058 A 
ATOM     22  C   UNL d   1       8.616   0.500 -16.155  0.00  0.00     0.011 A 
ATOM     23 CL   UNL d   1      11.094   0.709 -17.287  0.00  0.00    -0.082 Cl
ATOM     24  C   UNL d   1       7.511   1.016 -15.455  0.00  0.00     0.001 A 
ATOM     25  C   UNL d   1       7.516   2.336 -15.001  0.00  0.00    -0.002 A 
ENDBRANCH  18  19
ENDBRANCH   6  18
TORSDOF 5
