REMARK  2 active torsions:
REMARK  status: ('A' for Active; 'I' for Inactive)
REMARK    1  A    between atoms: C_4  and  C_5 
REMARK    2  A    between atoms: C_5  and  N_6 
ROOT
ATOM      1  N   UNL d   1       9.150   6.384 -10.528  0.00  0.00     0.144 N 
ATOM      2  C   UNL d   1       9.612   5.319  -9.653  0.00  0.00     0.268 C 
ATOM      3  C   UNL d   1       9.682   5.780  -8.193  0.00  0.00     0.112 C 
ATOM      4  N   UNL d   1      10.517   6.956  -8.042  0.00  0.00    -0.249 NA
ATOM      5  C   UNL d   1      10.827   7.385  -6.730  0.00  0.00     0.038 A 
ATOM      6  C   UNL d   1      10.876   6.627  -5.554  0.00  0.00     0.011 A 
ATOM      7  C   UNL d   1      11.238   7.163  -4.307  0.00  0.00     0.003 A 
ATOM      8  C   UNL d   1      11.481   8.535  -4.177  0.00  0.00     0.019 A 
ATOM      9  C   UNL d   1      11.350   9.304  -5.310  0.00  0.00     0.082 A 
ATOM     10  N   UNL d   1      11.424  10.635  -5.480  0.00  0.00    -0.244 NA
ATOM     11  C   UNL d   1      11.474  10.875  -6.822  0.00  0.00     0.095 C 
ATOM     12  C   UNL d   1      11.179   9.734  -7.462  0.00  0.00     0.001 C 
ATOM     13  C   UNL d   1      11.095   8.721  -6.534  0.00  0.00     0.025 A 
ATOM     14  C   UNL d   1      11.015   9.242  -8.877  0.00  0.00     0.046 C 
ATOM     15  C   UNL d   1      10.107   8.019  -8.965  0.00  0.00     0.100 C 
ATOM     16  C   UNL d   1      10.074   7.510 -10.410  0.00  0.00     0.267 C 
ENDROOT
BRANCH   1  17
ATOM     17  C   UNL d   1       9.159   5.917 -11.911  0.00  0.00     0.277 C 
BRANCH  17  18
ATOM     18  C   UNL d   1       7.957   5.064 -12.265  0.00  0.00     0.011 A 
ATOM     19  C   UNL d   1       6.719   5.341 -11.652  0.00  0.00    -0.002 A 
ATOM     20  C   UNL d   1       5.584   4.592 -12.007  0.00  0.00    -0.000 A 
ATOM     21  C   UNL d   1       5.669   3.539 -12.931  0.00  0.00    -0.000 A 
ATOM     22  C   UNL d   1       6.904   3.258 -13.546  0.00  0.00    -0.000 A 
ATOM     23  C   UNL d   1       8.051   4.018 -13.210  0.00  0.00    -0.002 A 
ENDBRANCH  17  18
ENDBRANCH   1  17
TORSDOF 2
