REMARK  3 active torsions:
REMARK  status: ('A' for Active; 'I' for Inactive)
REMARK    1  A    between atoms: C_3  and  C_4 
REMARK    2  A    between atoms: N_16  and  C_17 
REMARK    3  A    between atoms: C_17  and  C_18 
ROOT
ATOM      1  O   UNL d   1       9.478   7.992 -11.379  0.00  0.00    -0.289 OA
ATOM      2  C   UNL d   1       9.255   6.891 -10.860  0.00  0.00     0.202 A 
ATOM      3  C   UNL d   1       9.497   6.487  -9.480  0.00  0.00     0.061 A 
ATOM      4  C   UNL d   1       9.053   5.238  -9.427  0.00  0.00     0.119 A 
ATOM      5  O   UNL d   1       8.550   4.719 -10.591  0.00  0.00    -0.324 OA
ATOM      6  C   UNL d   1       8.669   5.701 -11.606  0.00  0.00     0.185 A 
ATOM      7  C   UNL d   1       7.292   5.944 -12.242  0.00  0.00     0.039 C 
ATOM      8  C   UNL d   1       6.912   4.702 -13.064  0.00  0.00     0.038 C 
ATOM      9  C   UNL d   1       8.031   4.359 -14.044  0.00  0.00     0.251 C 
ATOM     10  N   UNL d   1       9.264   4.042 -13.332  0.00  0.00     0.144 N 
ATOM     11  C   UNL d   1       9.698   5.249 -12.645  0.00  0.00     0.285 C 
ENDROOT
BRANCH   3  12
ATOM     12  C   UNL d   1      10.126   7.267  -8.386  0.00  0.00     0.005 A 
ATOM     13  C   UNL d   1      10.536   8.602  -8.554  0.00  0.00     0.000 A 
ATOM     14  C   UNL d   1      11.141   9.290  -7.488  0.00  0.00     0.000 A 
ATOM     15  C   UNL d   1      11.361   8.659  -6.251  0.00  0.00     0.000 A 
ATOM     16  C   UNL d   1      10.956   7.326  -6.078  0.00  0.00     0.000 A 
ATOM     17  C   UNL d   1      10.343   6.637  -7.138  0.00  0.00     0.000 A 
ENDBRANCH   3  12
BRANCH  10  18
ATOM     18  C   UNL d   1      10.338   3.599 -14.224  0.00  0.00     0.277 C 
BRANCH  18  19
ATOM     19  C   UNL d   1      10.041   2.302 -14.961  0.00  0.00     0.011 A 
ATOM     20  C   UNL d   1      10.762   1.983 -16.131  0.00  0.00    -0.002 A 
ATOM     21  C   UNL d   1      10.440   0.815 -16.858  0.00  0.00    -0.000 A 
ATOM     22  C   UNL d   1       9.395  -0.021 -16.425  0.00  0.00    -0.000 A 
ATOM     23  C   UNL d   1       8.684   0.289 -15.254  0.00  0.00    -0.000 A 
ATOM     24  C   UNL d   1       9.036   1.420 -14.516  0.00  0.00    -0.002 A 
ENDBRANCH  18  19
ENDBRANCH  10  18
TORSDOF 3
