REMARK  7 active torsions:
REMARK  status: ('A' for Active; 'I' for Inactive)
REMARK    1  A    between atoms: C_3  and  N_4 
REMARK    2  A    between atoms: N_4  and  C_5 
REMARK    3  A    between atoms: C_11  and  O_12 
REMARK    4  A    between atoms: O_12  and  C_13 
REMARK    5  A    between atoms: C_13  and  C_14 
REMARK    6  A    between atoms: C_14  and  C_15 
REMARK    7  A    between atoms: C_15  and  N_16 
ROOT
ATOM      1  C   UNL d   1      10.139  -1.156 -17.265  0.00  0.00    -0.012 C 
ATOM      2  C   UNL d   1      10.196  -0.184 -16.530  0.00  0.00    -0.040 C 
ATOM      3  C   UNL d   1      10.231   0.989 -15.634  0.00  0.00     0.367 C 
ENDROOT
BRANCH   3   4
ATOM      4  N   UNL d   1       9.258   0.890 -14.551  0.00  0.00     0.356 N 
BRANCH   4   5
ATOM      5  C   UNL d   1       7.900   1.199 -14.986  0.00  0.00     0.280 C 
ATOM      6  C   UNL d   1       7.244   2.241 -14.128  0.00  0.00     0.009 A 
ATOM      7  C   UNL d   1       6.002   1.853 -13.667  0.00  0.00    -0.024 A 
ATOM      8  C   UNL d   1       7.806   3.485 -13.791  0.00  0.00     0.022 A 
ATOM      9  C   UNL d   1       5.651   0.475 -14.169  0.00  0.00     0.029 C 
ATOM     10  C   UNL d   1       5.242   2.690 -12.833  0.00  0.00    -0.003 A 
ATOM     11  C   UNL d   1       6.957  -0.020 -14.842  0.00  0.00     0.045 C 
ATOM     12  C   UNL d   1       5.788   3.949 -12.479  0.00  0.00     0.024 A 
ATOM     13  C   UNL d   1       7.065   4.351 -12.949  0.00  0.00     0.094 A 
BRANCH  13  14
ATOM     14  O   UNL d   1       7.499   5.610 -12.581  0.00  0.00    -0.331 OA
BRANCH  14  15
ATOM     15  C   UNL d   1       8.876   5.971 -12.718  0.00  0.00     0.151 C 
BRANCH  15  16
ATOM     16  C   UNL d   1       9.593   5.813 -11.370  0.00  0.00     0.068 C 
BRANCH  16  17
ATOM     17  C   UNL d   1       9.060   6.791 -10.334  0.00  0.00     0.253 C 
BRANCH  17  18
ATOM     18  N   UNL d   1      10.035   7.065  -9.277  0.00  0.00     0.137 N 
ATOM     19  C   UNL d   1      10.058   8.505  -8.984  0.00  0.00     0.250 C 
ATOM     20  C   UNL d   1      11.106   8.815  -7.900  0.00  0.00     0.035 C 
ATOM     21  C   UNL d   1      10.804   8.032  -6.618  0.00  0.00     0.004 C 
ATOM     22  C   UNL d   1      10.660   6.543  -6.949  0.00  0.00     0.035 C 
ATOM     23  C   UNL d   1       9.636   6.328  -8.076  0.00  0.00     0.250 C 
ENDBRANCH  17  18
ENDBRANCH  16  17
ENDBRANCH  15  16
ENDBRANCH  14  15
ENDBRANCH  13  14
ENDBRANCH   4   5
ENDBRANCH   3   4
TORSDOF 7
