REMARK  8 active torsions:
REMARK  status: ('A' for Active; 'I' for Inactive)
REMARK    1  A    between atoms: O_2  and  C_3 
REMARK    2  A    between atoms: C_8  and  N_9 
REMARK    3  A    between atoms: N_14  and  C_15 
REMARK    4  A    between atoms: C_15  and  C_16 
REMARK    5  A    between atoms: C_16  and  C_17 
REMARK    6  A    between atoms: C_17  and  S_18 
REMARK    7  A    between atoms: S_18  and  C_19 
REMARK    8  A    between atoms: C_22  and  C_23 
ROOT
ATOM      1  N   UNL d   1       9.691   3.520 -14.596  0.00  0.00    -0.250 NA
ATOM      2  C   UNL d   1      10.239   2.286 -14.067  0.00  0.00     0.077 C 
ATOM      3  C   UNL d   1      10.963   1.645 -15.250  0.00  0.00     0.021 C 
ATOM      4  C   UNL d   1      10.081   2.026 -16.441  0.00  0.00     0.052 C 
ATOM      5  C   UNL d   1      10.816   2.433 -17.723  0.00  0.00     0.252 C 
ATOM      6  N   UNL d   1      11.048   3.867 -17.552  0.00  0.00     0.138 N 
ATOM      7  C   UNL d   1       9.840   4.399 -16.928  0.00  0.00     0.266 C 
ATOM      8  C   UNL d   1       9.351   3.284 -15.993  0.00  0.00     0.097 C 
ENDROOT
BRANCH   6   9
ATOM      9  C   UNL d   1      11.365   4.570 -18.788  0.00  0.00     0.251 C 
BRANCH   9  10
ATOM     10  C   UNL d   1      12.778   4.221 -19.277  0.00  0.00     0.047 C 
BRANCH  10  11
ATOM     11  C   UNL d   1      13.201   5.035 -20.515  0.00  0.00     0.067 C 
BRANCH  11  12
ATOM     12  S   UNL d   1      14.902   4.670 -21.053  0.00  0.00    -0.075 SA
BRANCH  12  13
ATOM     13  C   UNL d   1      15.792   5.669 -19.904  0.00  0.00     0.193 A 
ATOM     14  N   UNL d   1      16.579   6.700 -20.278  0.00  0.00    -0.287 N 
ATOM     15  C   UNL d   1      17.080   7.125 -19.090  0.00  0.00     0.186 A 
ATOM     16  C   UNL d   1      16.849   7.186 -21.626  0.00  0.00     0.134 C 
ATOM     17  N   UNL d   1      16.643   6.383 -18.063  0.00  0.00    -0.127 NA
ATOM     18  N   UNL d   1      15.798   5.444 -18.591  0.00  0.00    -0.122 NA
BRANCH  15  19
ATOM     19  C   UNL d   1      18.009   8.243 -18.860  0.00  0.00     0.136 A 
ATOM     20  N   UNL d   1      18.247   9.127 -19.860  0.00  0.00    -0.238 NA
ATOM     21  C   UNL d   1      19.117  10.128 -19.605  0.00  0.00     0.120 A 
ATOM     22  C   UNL d   1      19.754  10.258 -18.353  0.00  0.00     0.120 A 
ATOM     23  N   UNL d   1      19.525   9.386 -17.346  0.00  0.00    -0.239 NA
ATOM     24  C   UNL d   1      18.666   8.377 -17.612  0.00  0.00     0.121 A 
ENDBRANCH  15  19
ENDBRANCH  12  13
ENDBRANCH  11  12
ENDBRANCH  10  11
ENDBRANCH   9  10
ENDBRANCH   6   9
BRANCH   1  25
ATOM     25  C   UNL d   1       8.722   4.165 -13.803  0.00  0.00     0.059 A 
ATOM     26  C   UNL d   1       7.440   3.608 -13.534  0.00  0.00     0.104 A 
ATOM     27  C   UNL d   1       6.545   4.337 -12.706  0.00  0.00     0.025 A 
ATOM     28  C   UNL d   1       6.912   5.579 -12.159  0.00  0.00     0.002 A 
ATOM     29  C   UNL d   1       8.179   6.119 -12.427  0.00  0.00     0.001 A 
ATOM     30  C   UNL d   1       9.082   5.405 -13.238  0.00  0.00     0.013 A 
BRANCH  26  31
ATOM     31  O   UNL d   1       7.117   2.382 -14.085  0.00  0.00    -0.327 OA
ATOM     32  C   UNL d   1       5.956   1.699 -13.628  0.00  0.00     0.181 C 
ENDBRANCH  26  31
ENDBRANCH   1  25
TORSDOF 8
