REMARK  12 active torsions:
REMARK  status: ('A' for Active; 'I' for Inactive)
REMARK    1  A    between atoms: O_2  and  C_3 
REMARK    2  A    between atoms: C_6  and  C_7 
REMARK    3  A    between atoms: C_7  and  N_8 
REMARK    4  A    between atoms: C_11  and  C_12 
REMARK       I    between atoms: C_12  and  N_14 
REMARK    5  A    between atoms: N_14  and  C_15 
REMARK    6  A    between atoms: C_15  and  C_16 
REMARK    7  A    between atoms: C_16  and  C_17 
REMARK    8  A    between atoms: C_17  and  C_18 
REMARK    9  A    between atoms: C_18  and  C_19 
REMARK   10  A    between atoms: C_19  and  N_20 
REMARK   11  A    between atoms: N_23  and  C_24 
REMARK   12  A    between atoms: C_29  and  O_30 
ROOT
ATOM      1  C   UNL d   1       8.020   1.041 -15.451  0.00  0.00     0.129 C 
ENDROOT
BRANCH   1   2
ATOM      2  N   UNL d   1       8.396   0.744 -16.824  0.00  0.00    -0.233 NA
ATOM      3  C   UNL d   1       7.750   1.050 -17.965  0.00  0.00     0.296 C 
ATOM      4  O   UNL d   1       6.620   1.536 -18.022  0.00  0.00    -0.264 OA
BRANCH   3   5
ATOM      5  C   UNL d   1       8.585   0.894 -19.188  0.00  0.00     0.175 A 
ATOM      6  N   UNL d   1       8.348   1.655 -20.330  0.00  0.00    -0.124 NA
ATOM      7  N   UNL d   1       9.190   1.314 -21.250  0.00  0.00    -0.064 NA
ATOM      8  N   UNL d   1       9.969   0.332 -20.738  0.00  0.00    -0.231 N 
ATOM      9  C   UNL d   1       9.632   0.036 -19.423  0.00  0.00     0.082 A 
ATOM     10  C   UNL d   1      10.321  -1.013 -18.593  0.00  0.00     0.054 C 
BRANCH   8  11
ATOM     11  C   UNL d   1      10.976  -0.282 -21.587  0.00  0.00     0.155 C 
BRANCH  11  12
ATOM     12  C   UNL d   1      12.369   0.214 -21.252  0.00  0.00     0.002 A 
ATOM     13  C   UNL d   1      12.732   1.542 -21.576  0.00  0.00    -0.000 A 
ATOM     14  C   UNL d   1      14.031   2.008 -21.260  0.00  0.00     0.024 A 
ATOM     15  C   UNL d   1      14.973   1.157 -20.667  0.00  0.00     0.094 A 
ATOM     16  C   UNL d   1      14.587  -0.164 -20.308  0.00  0.00     0.024 A 
ATOM     17  C   UNL d   1      13.306  -0.624 -20.622  0.00  0.00    -0.000 A 
BRANCH  15  18
ATOM     18  O   UNL d   1      16.221   1.679 -20.430  0.00  0.00    -0.328 OA
ATOM     19  C   UNL d   1      17.304   0.824 -20.776  0.00  0.00     0.181 C 
ENDBRANCH  15  18
ENDBRANCH  11  12
ENDBRANCH   8  11
ENDBRANCH   3   5
ENDBRANCH   1   2
BRANCH   1  20
ATOM     20  C   UNL d   1       7.613   2.509 -15.278  0.00  0.00     0.026 C 
BRANCH  20  21
ATOM     21  C   UNL d   1       7.357   2.917 -13.840  0.00  0.00     0.004 C 
BRANCH  21  22
ATOM     22  C   UNL d   1       6.865   4.368 -13.747  0.00  0.00     0.035 C 
BRANCH  22  23
ATOM     23  C   UNL d   1       6.704   4.839 -12.300  0.00  0.00     0.250 C 
BRANCH  23  24
ATOM     24  N   UNL d   1       8.023   5.034 -11.712  0.00  0.00     0.141 N 
ATOM     25  C   UNL d   1       7.900   4.928 -10.260  0.00  0.00     0.274 C 
ATOM     26  C   UNL d   1       9.249   5.031  -9.550  0.00  0.00     0.137 C 
ATOM     27  N   UNL d   1       9.862   6.306  -9.896  0.00  0.00    -0.343 N 
ATOM     28  C   UNL d   1       9.873   6.623 -11.318  0.00  0.00     0.137 C 
ATOM     29  C   UNL d   1       8.508   6.398 -11.986  0.00  0.00     0.274 C 
BRANCH  27  30
ATOM     30  C   UNL d   1      10.235   7.237  -8.923  0.00  0.00     0.079 A 
ATOM     31  C   UNL d   1      11.498   7.904  -8.969  0.00  0.00     0.110 A 
ATOM     32  C   UNL d   1      11.867   8.755  -7.901  0.00  0.00     0.026 A 
ATOM     33  C   UNL d   1      10.988   9.019  -6.841  0.00  0.00     0.002 A 
ATOM     34  C   UNL d   1       9.735   8.398  -6.819  0.00  0.00     0.002 A 
ATOM     35  C   UNL d   1       9.367   7.499  -7.827  0.00  0.00     0.019 A 
BRANCH  31  36
ATOM     36  O   UNL d   1      12.330   7.677 -10.022  0.00  0.00    -0.327 OA
ATOM     37  C   UNL d   1      13.735   7.819  -9.864  0.00  0.00     0.181 C 
ENDBRANCH  31  36
ENDBRANCH  27  30
ENDBRANCH  23  24
ENDBRANCH  22  23
ENDBRANCH  21  22
ENDBRANCH  20  21
ENDBRANCH   1  20
TORSDOF 12
