REMARK  4 active torsions:
REMARK  status: ('A' for Active; 'I' for Inactive)
REMARK    1  A    between atoms: C_2  and  C_5 
REMARK    2  A    between atoms: C_7  and  O_8 
REMARK    3  A    between atoms: O_8  and  C_9 
REMARK    4  A    between atoms: C_20  and  C_21 
ROOT
ATOM      1  C   UNL d   1       7.921   1.154 -16.989  0.00  0.00     0.075 A 
ATOM      2  C   UNL d   1       6.747   0.350 -17.033  0.00  0.00     0.029 A 
ATOM      3  C   UNL d   1       6.207  -0.241 -15.880  0.00  0.00     0.102 A 
ATOM      4  C   UNL d   1       6.850  -0.050 -14.647  0.00  0.00     0.025 A 
ATOM      5  C   UNL d   1       8.038   0.710 -14.588  0.00  0.00     0.003 A 
ATOM      6  C   UNL d   1       8.572   1.328 -15.740  0.00  0.00     0.020 A 
ENDROOT
BRANCH   3   7
ATOM      7  O   UNL d   1       5.056  -1.015 -15.914  0.00  0.00    -0.289 OA
BRANCH   7   8
ATOM      8  C   UNL d   1       4.687  -1.592 -17.105  0.00  0.00     0.184 A 
ATOM      9  C   UNL d   1       4.939  -2.974 -17.378  0.00  0.00     0.066 A 
ATOM     10  C   UNL d   1       4.594  -3.436 -18.667  0.00  0.00     0.105 A 
ATOM     11  C   UNL d   1       5.459  -4.104 -16.674  0.00  0.00     0.032 A 
ATOM     12  C   UNL d   1       4.065  -2.590 -19.645  0.00  0.00     0.045 A 
ATOM     13  O   UNL d   1       4.890  -4.776 -18.772  0.00  0.00    -0.305 OA
ATOM     14  C   UNL d   1       3.854  -1.262 -19.280  0.00  0.00     0.103 A 
ATOM     15  N   UNL d   1       4.148  -0.788 -18.025  0.00  0.00    -0.220 NA
ATOM     16  C   UNL d   1       5.390  -5.162 -17.555  0.00  0.00     0.123 A 
ENDBRANCH   7   8
ENDBRANCH   3   7
BRANCH   1  17
ATOM     17  C   UNL d   1       8.385   1.794 -18.301  0.00  0.00     0.419 C 
ATOM     18  F   UNL d   1       9.451   1.154 -18.782  0.00  0.00    -0.166 F 
ATOM     19  F   UNL d   1       8.679   3.081 -18.132  0.00  0.00    -0.166 F 
ATOM     20  F   UNL d   1       7.445   1.742 -19.242  0.00  0.00    -0.166 F 
ENDBRANCH   1  17
BRANCH   6  21
ATOM     21  C   UNL d   1       9.786   2.156 -15.598  0.00  0.00     0.065 A 
ATOM     22  N   UNL d   1       9.784   3.211 -14.720  0.00  0.00    -0.289 N 
ATOM     23  C   UNL d   1      10.908   4.065 -14.565  0.00  0.00     0.148 A 
ATOM     24  C   UNL d   1       8.813   3.697 -13.853  0.00  0.00     0.102 A 
ATOM     25  C   UNL d   1      12.046   3.813 -15.371  0.00  0.00     0.037 A 
ATOM     26  N   UNL d   1      10.662   4.992 -13.635  0.00  0.00    -0.225 NA
ATOM     27  C   UNL d   1      12.043   2.767 -16.255  0.00  0.00     0.005 A 
ATOM     28  C   UNL d   1      10.918   1.912 -16.341  0.00  0.00     0.018 A 
ATOM     29  C   UNL d   1       9.372   4.756 -13.187  0.00  0.00     0.120 A 
ENDBRANCH   6  21
TORSDOF 4
