REMARK  6 active torsions:
REMARK  status: ('A' for Active; 'I' for Inactive)
REMARK    1  A    between atoms: C_6  and  N_7 
REMARK    2  A    between atoms: N_10  and  C_11 
REMARK    3  A    between atoms: C_11  and  C_12 
REMARK    4  A    between atoms: C_12  and  C_13 
REMARK    5  A    between atoms: C_13  and  O_14 
REMARK    6  A    between atoms: O_14  and  C_15 
ROOT
ATOM      1  N   UNL d   1      10.600   7.372  -6.818  0.00  0.00    -0.344 N 
ATOM      2  C   UNL d   1       9.290   6.773  -6.994  0.00  0.00     0.137 C 
ATOM      3  C   UNL d   1       8.832   6.969  -8.443  0.00  0.00     0.274 C 
ATOM      4  N   UNL d   1       9.819   6.459  -9.405  0.00  0.00     0.141 N 
ATOM      5  C   UNL d   1      11.073   7.189  -9.213  0.00  0.00     0.274 C 
ATOM      6  C   UNL d   1      11.599   6.972  -7.776  0.00  0.00     0.137 C 
ENDROOT
BRANCH   4   7
ATOM      7  C   UNL d   1       9.316   6.688 -10.762  0.00  0.00     0.253 C 
BRANCH   7   8
ATOM      8  C   UNL d   1       8.434   5.519 -11.227  0.00  0.00     0.068 C 
BRANCH   8   9
ATOM      9  C   UNL d   1       7.616   5.878 -12.488  0.00  0.00     0.151 C 
BRANCH   9  10
ATOM     10  O   UNL d   1       6.859   4.764 -12.953  0.00  0.00    -0.331 OA
BRANCH  10  11
ATOM     11  C   UNL d   1       7.506   3.758 -13.639  0.00  0.00     0.096 A 
ATOM     12  C   UNL d   1       8.891   3.767 -13.942  0.00  0.00     0.044 A 
ATOM     13  C   UNL d   1       9.506   2.704 -14.633  0.00  0.00     0.090 A 
ATOM     14  C   UNL d   1       8.686   1.610 -15.039  0.00  0.00     0.049 A 
ATOM     15  N   UNL d   1      10.851   2.616 -14.972  0.00  0.00    -0.236 NA
ATOM     16  C   UNL d   1       7.308   1.587 -14.752  0.00  0.00     0.010 A 
ATOM     17  S   UNL d   1       9.672   0.416 -15.883  0.00  0.00    -0.064 SA
ATOM     18  C   UNL d   1       6.725   2.658 -14.046  0.00  0.00     0.025 A 
ATOM     19  C   UNL d   1      11.060   1.481 -15.645  0.00  0.00     0.135 A 
ENDBRANCH  10  11
ENDBRANCH   9  10
ENDBRANCH   8   9
ENDBRANCH   7   8
ENDBRANCH   4   7
BRANCH   1  20
ATOM     20  C   UNL d   1      10.909   8.244  -5.780  0.00  0.00     0.068 A 
ATOM     21  C   UNL d   1      10.626   9.600  -5.930  0.00  0.00     0.018 A 
ATOM     22  C   UNL d   1      10.882  10.455  -4.843  0.00  0.00     0.002 A 
ATOM     23  C   UNL d   1      11.462   9.998  -3.647  0.00  0.00     0.012 A 
ATOM     24  C   UNL d   1      11.798   8.666  -3.516  0.00  0.00     0.070 A 
ATOM     25 CL   UNL d   1      12.502   8.115  -2.041  0.00  0.00    -0.081 Cl
ATOM     26  C   UNL d   1      11.504   7.810  -4.580  0.00  0.00     0.084 A 
ATOM     27 CL   UNL d   1      11.859   6.186  -4.363  0.00  0.00    -0.080 Cl
ENDBRANCH   1  20
TORSDOF 6
