REMARK  6 active torsions:
REMARK  status: ('A' for Active; 'I' for Inactive)
REMARK    1  A    between atoms: C_2  and  C_3 
REMARK    2  A    between atoms: N_13  and  C_14 
REMARK    3  A    between atoms: C_14  and  C_15 
REMARK    4  A    between atoms: C_15  and  C_17 
REMARK    5  A    between atoms: C_17  and  N_18 
REMARK    6  A    between atoms: N_21  and  C_22 
ROOT
ATOM      1  C   UNL d   1       9.229   4.102 -12.710  0.00  0.00     0.148 C 
ENDROOT
BRANCH   1   2
ATOM      2  N   UNL d   1       9.673   3.720 -14.052  0.00  0.00    -0.247 N 
ATOM      3  C   UNL d   1       8.970   2.934 -14.885  0.00  0.00     0.348 A 
ATOM      4  N   UNL d   1       9.668   2.796 -16.020  0.00  0.00    -0.209 NA
ATOM      5  O   UNL d   1       7.880   2.416 -14.668  0.00  0.00    -0.245 OA
ATOM      6  C   UNL d   1      10.915   3.542 -16.019  0.00  0.00     0.179 A 
ATOM      7  C   UNL d   1      12.096   2.564 -16.180  0.00  0.00     0.039 C 
ATOM      8  C   UNL d   1      10.832   4.101 -14.599  0.00  0.00     0.265 A 
ATOM      9  O   UNL d   1      11.711   4.783 -14.062  0.00  0.00    -0.269 OA
BRANCH   6  10
ATOM     10  C   UNL d   1      10.953   4.687 -17.046  0.00  0.00     0.006 A 
ATOM     11  C   UNL d   1      12.130   5.457 -17.202  0.00  0.00     0.000 A 
ATOM     12  C   UNL d   1      12.189   6.499 -18.147  0.00  0.00     0.029 A 
ATOM     13  C   UNL d   1      11.069   6.790 -18.947  0.00  0.00     0.140 A 
ATOM     14  C   UNL d   1       9.890   6.038 -18.800  0.00  0.00     0.029 A 
ATOM     15  F   UNL d   1      11.123   7.795 -19.852  0.00  0.00    -0.204 F 
ATOM     16  C   UNL d   1       9.832   4.993 -17.858  0.00  0.00     0.000 A 
ENDBRANCH   6  10
ENDBRANCH   1   2
BRANCH   1  17
ATOM     17  C   UNL d   1       8.407   5.409 -12.731  0.00  0.00     0.208 C 
ATOM     18  O   UNL d   1       7.120   5.125 -13.228  0.00  0.00    -0.219 OA
BRANCH  17  19
ATOM     19  C   UNL d   1       8.152   6.016 -11.350  0.00  0.00     0.285 C 
BRANCH  19  20
ATOM     20  N   UNL d   1       9.323   6.077 -10.480  0.00  0.00     0.144 N 
ATOM     21  C   UNL d   1       8.986   5.592  -9.139  0.00  0.00     0.274 C 
ATOM     22  C   UNL d   1      10.180   5.592  -8.190  0.00  0.00     0.137 C 
ATOM     23  N   UNL d   1      10.780   6.922  -8.150  0.00  0.00    -0.344 N 
ATOM     24  C   UNL d   1      11.087   7.520  -9.455  0.00  0.00     0.137 C 
ATOM     25  C   UNL d   1       9.848   7.444 -10.361  0.00  0.00     0.274 C 
BRANCH  23  26
ATOM     26  C   UNL d   1      11.050   7.561  -6.924  0.00  0.00     0.056 A 
ATOM     27  C   UNL d   1      11.335   6.799  -5.764  0.00  0.00     0.018 A 
ATOM     28  C   UNL d   1      11.575   7.427  -4.529  0.00  0.00     0.013 A 
ATOM     29  C   UNL d   1      11.559   8.829  -4.436  0.00  0.00     0.058 A 
ATOM     30  C   UNL d   1      11.297   9.601  -5.583  0.00  0.00     0.013 A 
ATOM     31 CL   UNL d   1      11.864   9.590  -2.929  0.00  0.00    -0.082 Cl
ATOM     32  C   UNL d   1      11.038   8.972  -6.819  0.00  0.00     0.018 A 
ENDBRANCH  23  26
ENDBRANCH  19  20
ENDBRANCH  17  19
ENDBRANCH   1  17
TORSDOF 6
