REMARK  9 active torsions:
REMARK  status: ('A' for Active; 'I' for Inactive)
REMARK    1  A    between atoms: C_2  and  C_3 
REMARK    2  A    between atoms: C_3  and  N_4 
REMARK    3  A    between atoms: N_4  and  C_5 
REMARK    4  A    between atoms: N_4  and  C_8 
REMARK    5  A    between atoms: C_5  and  C_6 
REMARK    6  A    between atoms: C_15  and  C_16 
REMARK    7  A    between atoms: C_16  and  C_17 
REMARK    8  A    between atoms: C_17  and  C_18 
REMARK    9  A    between atoms: C_25  and  O_26 
ROOT
ATOM      1  C   UNL d   1       7.677   3.894 -13.715  0.00  0.00     0.224 C 
ATOM      2  C   UNL d   1       8.825   4.717 -14.275  0.00  0.00     0.038 C 
ATOM      3  C   UNL d   1       9.003   6.015 -13.535  0.00  0.00     0.030 C 
ATOM      4  C   UNL d   1       8.946   5.952 -12.039  0.00  0.00    -0.004 A 
ATOM      5  C   UNL d   1       8.405   4.831 -11.397  0.00  0.00    -0.022 A 
ATOM      6  C   UNL d   1       8.411   4.793 -10.001  0.00  0.00    -0.005 A 
ATOM      7  C   UNL d   1       8.951   5.821  -9.224  0.00  0.00    -0.003 A 
ATOM      8  C   UNL d   1       9.457   6.969  -9.875  0.00  0.00     0.000 A 
ATOM      9  C   UNL d   1       9.423   7.031 -11.282  0.00  0.00     0.086 A 
ATOM     10  C   UNL d   1       7.955   3.667 -12.221  0.00  0.00     0.059 C 
ENDROOT
BRANCH   8  11
ATOM     11  C   UNL d   1       9.951   8.127  -9.047  0.00  0.00     0.033 C 
BRANCH  11  12
ATOM     12  C   UNL d   1      11.339   7.841  -8.472  0.00  0.00     0.031 C 
BRANCH  12  13
ATOM     13  C   UNL d   1      11.446   8.306  -7.045  0.00  0.00    -0.022 A 
ATOM     14  C   UNL d   1      11.486   9.682  -6.776  0.00  0.00    -0.003 A 
ATOM     15  C   UNL d   1      11.602  10.121  -5.447  0.00  0.00     0.011 A 
ATOM     16  C   UNL d   1      11.681   9.185  -4.394  0.00  0.00     0.058 A 
ATOM     17  C   UNL d   1      11.569   7.813  -4.658  0.00  0.00     0.011 A 
ATOM     18 CL   UNL d   1      11.902   9.699  -2.780  0.00  0.00    -0.082 Cl
ATOM     19  C   UNL d   1      11.447   7.369  -5.986  0.00  0.00    -0.003 A 
ENDBRANCH  12  13
ENDBRANCH  11  12
ENDBRANCH   8  11
BRANCH   9  20
ATOM     20  O   UNL d   1       9.852   8.138 -11.935  0.00  0.00    -0.329 OA
ATOM     21  C   UNL d   1       8.882   9.117 -12.156  0.00  0.00     0.181 C 
ENDBRANCH   9  20
BRANCH   1  22
ATOM     22  N   UNL d   1       7.507   2.597 -14.427  0.00  0.00     0.135 N 
BRANCH  22  23
ATOM     23  C   UNL d   1       6.236   1.962 -14.044  0.00  0.00     0.250 C 
BRANCH  23  24
ATOM     24  C   UNL d   1       5.857   0.775 -14.965  0.00  0.00     0.035 C 
ATOM     25  C   UNL d   1       4.869  -0.176 -14.278  0.00  0.00     0.002 C 
ENDBRANCH  23  24
ENDBRANCH  22  23
BRANCH  22  26
ATOM     26  C   UNL d   1       8.624   1.642 -14.290  0.00  0.00     0.250 C 
BRANCH  26  27
ATOM     27  C   UNL d   1       9.782   1.964 -15.270  0.00  0.00     0.035 C 
ATOM     28  C   UNL d   1      10.945   0.998 -15.039  0.00  0.00     0.002 C 
ENDBRANCH  26  27
ENDBRANCH  22  26
ENDBRANCH   1  22
TORSDOF 9
