REMARK  8 active torsions:
REMARK  status: ('A' for Active; 'I' for Inactive)
REMARK    1  A    between atoms: O_2  and  C_3 
REMARK    2  A    between atoms: C_9  and  S_10 
REMARK    3  A    between atoms: S_10  and  N_13 
REMARK    4  A    between atoms: N_13  and  C_14 
REMARK    5  A    between atoms: C_17  and  N_18 
REMARK    6  A    between atoms: C_21  and  C_22 
REMARK    7  A    between atoms: C_27  and  O_28 
REMARK    8  A    between atoms: O_28  and  C_29 
ROOT
ATOM      1  C   UNL d   1       5.367  -2.936 -17.690  0.00  0.00     0.116 C 
ATOM      2  C   UNL d   1       6.048  -2.383 -18.956  0.00  0.00     0.027 C 
ATOM      3  C   UNL d   1       7.102  -1.349 -18.589  0.00  0.00     0.035 C 
ATOM      4  C   UNL d   1       6.512  -0.187 -17.750  0.00  0.00     0.219 C 
ATOM      5  C   UNL d   1       5.776  -0.727 -16.493  0.00  0.00     0.035 C 
ATOM      6  C   UNL d   1       4.730  -1.793 -16.858  0.00  0.00     0.027 C 
ENDROOT
BRANCH   4   7
ATOM      7  N   UNL d   1       7.519   0.815 -17.375  0.00  0.00     0.135 N 
ATOM      8  C   UNL d   1       8.658   0.215 -16.663  0.00  0.00     0.251 C 
ATOM      9  C   UNL d   1       9.617   1.289 -16.172  0.00  0.00     0.040 C 
ATOM     10  C   UNL d   1      10.125   2.119 -17.358  0.00  0.00     0.028 C 
ATOM     11  C   UNL d   1       8.935   2.690 -18.146  0.00  0.00     0.040 C 
ATOM     12  C   UNL d   1       7.974   1.563 -18.556  0.00  0.00     0.251 C 
BRANCH  10  13
ATOM     13  C   UNL d   1      11.155   3.168 -16.956  0.00  0.00    -0.000 A 
ATOM     14  C   UNL d   1      10.887   4.149 -15.959  0.00  0.00     0.090 A 
ATOM     15  C   UNL d   1      11.900   5.083 -15.641  0.00  0.00     0.024 A 
ATOM     16  C   UNL d   1      13.149   5.043 -16.287  0.00  0.00     0.002 A 
ATOM     17  C   UNL d   1      13.413   4.067 -17.258  0.00  0.00    -0.000 A 
ATOM     18  C   UNL d   1      12.417   3.134 -17.589  0.00  0.00    -0.002 A 
BRANCH  14  19
ATOM     19  O   UNL d   1       9.643   4.183 -15.357  0.00  0.00    -0.334 OA
BRANCH  19  20
ATOM     20  C   UNL d   1       9.516   4.811 -14.087  0.00  0.00     0.121 A 
ATOM     21  C   UNL d   1       8.232   4.489 -13.367  0.00  0.00     0.033 A 
ATOM     22  C   UNL d   1       9.531   3.861 -12.916  0.00  0.00     0.033 A 
ENDBRANCH  19  20
ENDBRANCH  14  19
ENDBRANCH  10  13
ENDBRANCH   4   7
BRANCH   1  23
ATOM     23  N   UNL d   1       4.339  -3.909 -18.058  0.00  0.00    -0.187 NA
BRANCH  23  24
ATOM     24  S   UNL d   1       4.759  -5.492 -18.580  0.00  0.00     0.283 S 
ATOM     25  O   UNL d   1       4.721  -6.364 -17.394  0.00  0.00    -0.199 OA
ATOM     26  O   UNL d   1       5.974  -5.424 -19.405  0.00  0.00    -0.199 OA
BRANCH  24  27
ATOM     27  C   UNL d   1       3.385  -5.883 -19.654  0.00  0.00     0.128 A 
ATOM     28  C   UNL d   1       3.221  -5.213 -20.895  0.00  0.00     0.106 A 
ATOM     29  C   UNL d   1       2.113  -5.569 -21.709  0.00  0.00     0.026 A 
ATOM     30  C   UNL d   1       1.204  -6.559 -21.291  0.00  0.00     0.013 A 
ATOM     31  C   UNL d   1       1.386  -7.212 -20.053  0.00  0.00     0.059 A 
ATOM     32 CL   UNL d   1       0.278  -8.438 -19.549  0.00  0.00    -0.082 Cl
ATOM     33  C   UNL d   1       2.477  -6.875 -19.245  0.00  0.00     0.026 A 
BRANCH  28  34
ATOM     34  O   UNL d   1       4.137  -4.243 -21.247  0.00  0.00    -0.327 OA
ATOM     35  C   UNL d   1       4.064  -3.678 -22.549  0.00  0.00     0.181 C 
ENDBRANCH  28  34
ENDBRANCH  24  27
ENDBRANCH  23  24
ENDBRANCH   1  23
TORSDOF 8
