REMARK  11 active torsions:
REMARK  status: ('A' for Active; 'I' for Inactive)
REMARK    1  A    between atoms: C_2  and  N_3 
REMARK    2  A    between atoms: N_3  and  C_4 
REMARK    3  A    between atoms: N_3  and  C_21 
REMARK    4  A    between atoms: C_4  and  C_5 
REMARK    5  A    between atoms: C_5  and  C_6 
REMARK    6  A    between atoms: C_6  and  C_7 
REMARK    7  A    between atoms: C_7  and  N_8 
REMARK       I    between atoms: N_8  and  C_9 
REMARK    8  A    between atoms: C_9  and  C_11 
REMARK    9  A    between atoms: C_21  and  C_22 
REMARK   10  A    between atoms: C_24  and  C_25 
REMARK   11  A    between atoms: C_31  and  O_32 
ROOT
ATOM      1  C   UNL d   1       6.957   6.036 -12.386  0.00  0.00     0.250 C 
ENDROOT
BRANCH   1   2
ATOM      2  N   UNL d   1       6.899   4.575 -12.643  0.00  0.00     0.137 N 
BRANCH   2   3
ATOM      3  C   UNL d   1       5.517   4.090 -12.609  0.00  0.00     0.250 C 
ATOM      4  C   UNL d   1       4.671   4.674 -13.737  0.00  0.00     0.037 C 
ENDBRANCH   2   3
BRANCH   2   5
ATOM      5  C   UNL d   1       7.656   4.183 -13.844  0.00  0.00     0.251 C 
BRANCH   5   6
ATOM      6  C   UNL d   1       7.298   2.825 -14.454  0.00  0.00     0.038 A 
ATOM      7  C   UNL d   1       8.225   2.187 -15.454  0.00  0.00     0.026 A 
ATOM      8  C   UNL d   1       8.078   1.622 -14.063  0.00  0.00     0.007 A 
BRANCH   7   9
ATOM      9  C   UNL d   1       9.491   2.881 -15.902  0.00  0.00     0.002 A 
ATOM     10  C   UNL d   1      10.761   2.584 -15.361  0.00  0.00     0.090 A 
ATOM     11  C   UNL d   1      11.868   3.370 -15.709  0.00  0.00     0.026 A 
ATOM     12  C   UNL d   1      11.753   4.433 -16.617  0.00  0.00     0.032 A 
ATOM     13  C   UNL d   1      10.509   4.705 -17.197  0.00  0.00     0.140 A 
ATOM     14  C   UNL d   1       9.411   3.910 -16.862  0.00  0.00     0.027 A 
ATOM     15  F   UNL d   1      10.369   5.728 -18.074  0.00  0.00    -0.204 F 
BRANCH  10  16
ATOM     16  O   UNL d   1      10.963   1.572 -14.473  0.00  0.00    -0.328 OA
ATOM     17  C   UNL d   1      10.634   0.275 -14.938  0.00  0.00     0.181 C 
ENDBRANCH  10  16
ENDBRANCH   7   9
ENDBRANCH   5   6
ENDBRANCH   2   5
ENDBRANCH   1   2
BRANCH   1  18
ATOM     18  C   UNL d   1       8.412   6.476 -12.076  0.00  0.00     0.037 C 
BRANCH  18  19
ATOM     19  C   UNL d   1       8.570   8.013 -12.017  0.00  0.00     0.029 C 
BRANCH  19  20
ATOM     20  C   UNL d   1       9.901   8.448 -11.554  0.00  0.00     0.129 C 
BRANCH  20  21
ATOM     21  N   UNL d   1      10.277   7.992 -10.227  0.00  0.00    -0.234 NA
ATOM     22  C   UNL d   1       9.883   8.650  -9.113  0.00  0.00     0.275 C 
ATOM     23  O   UNL d   1       9.116   9.566  -9.107  0.00  0.00    -0.266 OA
BRANCH  22  24
ATOM     24  C   UNL d   1      10.474   8.158  -7.842  0.00  0.00     0.058 A 
ATOM     25  C   UNL d   1      10.534   8.981  -6.716  0.00  0.00     0.005 A 
ATOM     26  C   UNL d   1      11.049   8.508  -5.495  0.00  0.00     0.000 A 
ATOM     27  C   UNL d   1      11.480   7.165  -5.419  0.00  0.00     0.000 A 
ATOM     28  C   UNL d   1      11.169   9.332  -4.359  0.00  0.00     0.000 A 
ATOM     29  C   UNL d   1      11.458   6.373  -6.575  0.00  0.00     0.000 A 
ATOM     30  C   UNL d   1      12.027   6.667  -4.231  0.00  0.00     0.000 A 
ATOM     31  C   UNL d   1      10.938   6.830  -7.776  0.00  0.00     0.005 A 
ATOM     32  C   UNL d   1      12.175   7.489  -3.108  0.00  0.00     0.000 A 
ATOM     33  C   UNL d   1      11.739   8.825  -3.173  0.00  0.00     0.000 A 
ENDBRANCH  22  24
ENDBRANCH  20  21
ENDBRANCH  19  20
ENDBRANCH  18  19
ENDBRANCH   1  18
TORSDOF 11
