REMARK  6 active torsions:
REMARK  status: ('A' for Active; 'I' for Inactive)
REMARK    1  A    between atoms: N_9  and  C_10 
REMARK    2  A    between atoms: C_10  and  C_11 
REMARK    3  A    between atoms: C_11  and  C_12 
REMARK    4  A    between atoms: C_12  and  S_13 
REMARK    5  A    between atoms: S_13  and  C_14 
REMARK    6  A    between atoms: C_17  and  C_18 
ROOT
ATOM      1  C   UNL d   1      11.743  -0.313 -18.791  0.00  0.00     0.067 C 
ENDROOT
BRANCH   1   2
ATOM      2  C   UNL d   1      11.915   1.207 -18.962  0.00  0.00     0.047 C 
BRANCH   2   3
ATOM      3  C   UNL d   1      13.364   1.603 -19.271  0.00  0.00     0.251 C 
BRANCH   3   4
ATOM      4  N   UNL d   1      13.470   3.065 -19.264  0.00  0.00     0.138 N 
ATOM      5  C   UNL d   1      14.131   3.491 -18.027  0.00  0.00     0.255 C 
ATOM      6  C   UNL d   1      13.978   4.992 -17.734  0.00  0.00     0.061 C 
ATOM      7  C   UNL d   1      14.973   5.854 -18.492  0.00  0.00    -0.027 A 
ATOM      8  C   UNL d   1      15.873   6.589 -17.810  0.00  0.00    -0.004 A 
ATOM      9  C   UNL d   1      14.946   5.893 -19.947  0.00  0.00    -0.026 A 
ATOM     10  C   UNL d   1      16.905   7.509 -18.441  0.00  0.00     0.159 A 
ATOM     11  N   UNL d   1      18.230   7.055 -18.111  0.00  0.00    -0.247 NA
ATOM     12  C   UNL d   1      16.858   7.569 -19.986  0.00  0.00     0.171 A 
ATOM     13  C   UNL d   1      18.835   6.897 -19.204  0.00  0.00     0.150 A 
ATOM     14  C   UNL d   1      20.251   6.423 -19.407  0.00  0.00     0.080 C 
ATOM     15  O   UNL d   1      18.159   7.162 -20.352  0.00  0.00    -0.314 OA
ATOM     16  C   UNL d   1      15.808   6.678 -20.623  0.00  0.00     0.001 A 
ATOM     17  C   UNL d   1      13.942   5.047 -20.709  0.00  0.00     0.061 C 
ATOM     18  C   UNL d   1      14.132   3.538 -20.480  0.00  0.00     0.255 C 
ENDBRANCH   3   4
ENDBRANCH   2   3
ENDBRANCH   1   2
BRANCH   1  19
ATOM     19  S   UNL d   1       9.995  -0.794 -18.614  0.00  0.00    -0.075 SA
BRANCH  19  20
ATOM     20  C   UNL d   1       9.626  -0.042 -17.056  0.00  0.00     0.193 A 
ATOM     21  N   UNL d   1       8.380   0.335 -16.707  0.00  0.00    -0.289 N 
ATOM     22  C   UNL d   1       8.572   0.834 -15.467  0.00  0.00     0.167 A 
ATOM     23  C   UNL d   1       7.133   0.208 -17.451  0.00  0.00     0.134 C 
ATOM     24  N   UNL d   1       9.841   0.738 -15.057  0.00  0.00    -0.128 NA
ATOM     25  N   UNL d   1      10.531   0.179 -16.100  0.00  0.00    -0.122 NA
BRANCH  22  26
ATOM     26  C   UNL d   1       7.523   1.397 -14.621  0.00  0.00     0.037 A 
ATOM     27  C   UNL d   1       7.586   2.716 -14.097  0.00  0.00     0.021 A 
ATOM     28  C   UNL d   1       6.543   3.202 -13.253  0.00  0.00     0.081 A 
ATOM     29  C   UNL d   1       8.681   3.581 -14.361  0.00  0.00     0.003 A 
ATOM     30  C   UNL d   1       5.459   2.352 -12.958  0.00  0.00     0.019 A 
ATOM     31  N   UNL d   1       6.568   4.441 -12.713  0.00  0.00    -0.250 NA
ATOM     32  C   UNL d   1       5.392   1.051 -13.486  0.00  0.00     0.002 A 
ATOM     33  C   UNL d   1       6.419   0.573 -14.312  0.00  0.00     0.003 A 
ATOM     34  C   UNL d   1       7.630   5.235 -12.952  0.00  0.00     0.059 A 
ATOM     35  C   UNL d   1       7.610   6.604 -12.310  0.00  0.00     0.052 C 
ATOM     36  C   UNL d   1       8.707   4.851 -13.769  0.00  0.00     0.015 A 
ENDBRANCH  22  26
ENDBRANCH  19  20
ENDBRANCH   1  19
TORSDOF 6
