REMARK  7 active torsions:
REMARK  status: ('A' for Active; 'I' for Inactive)
REMARK    1  A    between atoms: C_2  and  C_3 
REMARK       I    between atoms: C_2  and  N_8 
REMARK    2  A    between atoms: C_3  and  C_4 
REMARK    3  A    between atoms: N_8  and  C_9 
REMARK    4  A    between atoms: C_12  and  C_13 
REMARK    5  A    between atoms: C_13  and  C_14 
REMARK    6  A    between atoms: C_14  and  N_15 
REMARK    7  A    between atoms: N_18  and  C_19 
ROOT
ATOM      1  C   UNL d   1       8.837   6.346 -11.298  0.00  0.00     0.250 C 
ENDROOT
BRANCH   1   2
ATOM      2  C   UNL d   1       8.120   4.981 -11.284  0.00  0.00     0.035 C 
BRANCH   2   3
ATOM      3  C   UNL d   1       7.844   4.465 -12.698  0.00  0.00     0.002 C 
ATOM      4  C   UNL d   1       9.078   3.679 -13.198  0.00  0.00     0.002 C 
ATOM      5  C   UNL d   1       8.847   3.100 -14.586  0.00  0.00     0.024 C 
ATOM      6  C   UNL d   1       7.574   2.228 -14.625  0.00  0.00     0.106 C 
ATOM      7  C   UNL d   1       6.338   3.011 -14.134  0.00  0.00     0.024 C 
ATOM      8  C   UNL d   1       6.550   3.630 -12.753  0.00  0.00     0.002 C 
BRANCH   6   9
ATOM      9  N   UNL d   1       7.333   1.736 -15.978  0.00  0.00    -0.240 NA
ATOM     10  C   UNL d   1       8.059   0.782 -16.583  0.00  0.00     0.260 C 
ATOM     11  O   UNL d   1       9.032   0.246 -16.055  0.00  0.00    -0.270 OA
BRANCH  10  12
ATOM     12  C   UNL d   1       7.605   0.374 -17.987  0.00  0.00     0.193 C 
BRANCH  12  13
ATOM     13  C   UNL d   1       8.687  -0.325 -18.836  0.00  0.00     0.407 C 
ATOM     14  F   UNL d   1       8.168  -0.625 -20.028  0.00  0.00    -0.170 F 
ATOM     15  F   UNL d   1       9.729   0.488 -19.018  0.00  0.00    -0.170 F 
ATOM     16  F   UNL d   1       9.114  -1.455 -18.268  0.00  0.00    -0.170 F 
ENDBRANCH  12  13
ENDBRANCH  10  12
ENDBRANCH   6   9
ENDBRANCH   2   3
ENDBRANCH   1   2
BRANCH   1  17
ATOM     17  N   UNL d   1       9.825   6.447 -10.226  0.00  0.00     0.141 N 
ATOM     18  C   UNL d   1       9.225   6.217  -8.905  0.00  0.00     0.274 C 
ATOM     19  C   UNL d   1      10.297   6.243  -7.817  0.00  0.00     0.138 C 
ATOM     20  N   UNL d   1      11.038   7.495  -7.872  0.00  0.00    -0.330 N 
ATOM     21  C   UNL d   1      11.525   7.906  -9.195  0.00  0.00     0.138 C 
ATOM     22  C   UNL d   1      10.383   7.803 -10.235  0.00  0.00     0.274 C 
BRANCH  20  23
ATOM     23  C   UNL d   1      11.218   8.294  -6.726  0.00  0.00     0.138 C 
ATOM     24  C   UNL d   1      11.308   7.771  -5.404  0.00  0.00     0.036 C 
ATOM     25  C   UNL d   1      11.473   8.598  -4.319  0.00  0.00     0.095 C 
ATOM     26  C   UNL d   1      11.271   6.372  -4.916  0.00  0.00     0.064 C 
ATOM     27  C   UNL d   1      11.448   9.983  -4.487  0.00  0.00     0.045 C 
ATOM     28  O   UNL d   1      11.620   7.944  -3.129  0.00  0.00    -0.331 OA
ATOM     29  C   UNL d   1      11.416  10.429  -5.831  0.00  0.00     0.103 C 
ATOM     30  N   UNL d   1      11.294   9.625  -6.905  0.00  0.00    -0.228 NA
ATOM     31  C   UNL d   1      11.614   6.535  -3.419  0.00  0.00     0.154 C 
ENDBRANCH  20  23
ENDBRANCH   1  17
TORSDOF 7
