REMARK  6 active torsions:
REMARK  status: ('A' for Active; 'I' for Inactive)
REMARK    1  A    between atoms: C_2  and  N_3 
REMARK    2  A    between atoms: C_2  and  C_19 
REMARK       I    between atoms: N_3  and  C_4 
REMARK       I    between atoms: C_4  and  N_6 
REMARK       I    between atoms: C_7  and  N_9 
REMARK    3  A    between atoms: N_9  and  C_10 
REMARK    4  A    between atoms: C_10  and  C_11 
REMARK    5  A    between atoms: C_11  and  C_12 
REMARK    6  A    between atoms: C_12  and  C_13 
ROOT
ATOM      1  N   UNL d   1       9.577   3.040 -13.641  0.00  0.00    -0.215 NA
ATOM      2  C   UNL d   1       9.081   4.269 -13.466  0.00  0.00     0.367 C 
ATOM      3  O   UNL d   1       8.661   4.940 -14.411  0.00  0.00    -0.243 OA
ATOM      4  N   UNL d   1       9.144   4.605 -12.126  0.00  0.00    -0.159 NA
ATOM      5  C   UNL d   1       8.538   5.648 -11.648  0.00  0.00     0.237 C 
ATOM      6  N   UNL d   1       7.754   6.555 -12.331  0.00  0.00    -0.060 NA
ATOM      7  N   UNL d   1       8.639   5.986 -10.312  0.00  0.00    -0.241 NA
ENDROOT
BRANCH   1   8
ATOM      8  C   UNL d   1       9.734   2.362 -14.923  0.00  0.00     0.131 C 
ATOM      9  C   UNL d   1      10.954   1.433 -14.868  0.00  0.00     0.031 C 
BRANCH   8  10
ATOM     10  C   UNL d   1       8.480   1.601 -15.338  0.00  0.00     0.002 A 
ATOM     11  C   UNL d   1       7.946   1.786 -16.631  0.00  0.00     0.027 A 
ATOM     12  C   UNL d   1       6.796   1.080 -17.032  0.00  0.00     0.140 A 
ATOM     13  C   UNL d   1       6.169   0.187 -16.143  0.00  0.00     0.030 A 
ATOM     14  F   UNL d   1       6.295   1.262 -18.277  0.00  0.00    -0.204 F 
ATOM     15  C   UNL d   1       6.698  -0.005 -14.852  0.00  0.00     0.002 A 
ATOM     16  C   UNL d   1       7.854   0.696 -14.454  0.00  0.00    -0.002 A 
ENDBRANCH   8  10
ENDBRANCH   1   8
BRANCH   7  17
ATOM     17  C   UNL d   1       9.386   5.254  -9.299  0.00  0.00     0.129 C 
BRANCH  17  18
ATOM     18  C   UNL d   1      10.196   6.197  -8.404  0.00  0.00     0.033 C 
BRANCH  18  19
ATOM     19  C   UNL d   1       9.326   7.027  -7.451  0.00  0.00     0.057 C 
BRANCH  19  20
ATOM     20  C   UNL d   1      10.143   7.863  -6.524  0.00  0.00     0.112 A 
ATOM     21  S   UNL d   1      11.061   7.160  -5.203  0.00  0.00    -0.036 SA
ATOM     22  C   UNL d   1      11.559   8.800  -4.834  0.00  0.00     0.203 A 
ATOM     23  N   UNL d   1      11.075   9.737  -5.649  0.00  0.00    -0.127 NA
ATOM     24  N   UNL d   1      12.390   9.065  -3.758  0.00  0.00    -0.070 NA
ATOM     25  N   UNL d   1      10.279   9.188  -6.650  0.00  0.00    -0.144 NA
ENDBRANCH  19  20
ENDBRANCH  18  19
ENDBRANCH  17  18
ENDBRANCH   7  17
TORSDOF 6
