REMARK  6 active torsions:
REMARK  status: ('A' for Active; 'I' for Inactive)
REMARK    1  A    between atoms: C_2  and  S_3 
REMARK    2  A    between atoms: S_3  and  C_6 
REMARK    3  A    between atoms: C_9  and  O_10 
REMARK    4  A    between atoms: C_12  and  C_13 
REMARK    5  A    between atoms: C_16  and  C_17 
REMARK    6  A    between atoms: C_17  and  N_18 
ROOT
ATOM      1  C   UNL d   1       8.447   2.444 -14.627  0.00  0.00     0.084 A 
ATOM      2  C   UNL d   1       7.105   2.050 -14.481  0.00  0.00     0.013 A 
ATOM      3  C   UNL d   1       6.263   2.792 -13.630  0.00  0.00     0.025 A 
ATOM      4  C   UNL d   1       6.733   3.925 -12.937  0.00  0.00     0.096 A 
ATOM      5  C   UNL d   1       8.082   4.329 -13.110  0.00  0.00     0.041 A 
ATOM      6  C   UNL d   1       8.929   3.583 -13.956  0.00  0.00     0.015 A 
ENDROOT
BRANCH   5   7
ATOM      7  C   UNL d   1       8.654   5.473 -12.385  0.00  0.00     0.083 A 
ATOM      8  N   UNL d   1       9.460   5.287 -11.294  0.00  0.00    -0.248 NA
ATOM      9  C   UNL d   1       9.852   6.503 -10.761  0.00  0.00     0.092 A 
ATOM     10  C   UNL d   1       9.269   7.472 -11.515  0.00  0.00     0.018 A 
ATOM     11  C   UNL d   1       8.575   6.821 -12.557  0.00  0.00     0.020 A 
BRANCH   9  12
ATOM     12  C   UNL d   1      10.804   6.619  -9.610  0.00  0.00     0.296 C 
BRANCH  12  13
ATOM     13  N   UNL d   1      10.479   7.673  -8.660  0.00  0.00     0.148 N 
ATOM     14  C   UNL d   1       9.394   7.255  -7.773  0.00  0.00     0.283 C 
ATOM     15  C   UNL d   1       9.062   8.332  -6.737  0.00  0.00     0.178 C 
ATOM     16  O   UNL d   1      10.231   8.684  -5.998  0.00  0.00    -0.350 OA
ATOM     17  C   UNL d   1      11.296   9.141  -6.825  0.00  0.00     0.178 C 
ATOM     18  C   UNL d   1      11.642   8.058  -7.862  0.00  0.00     0.283 C 
ENDBRANCH  12  13
ENDBRANCH   9  12
ENDBRANCH   5   7
BRANCH   4  19
ATOM     19  O   UNL d   1       5.863   4.550 -12.076  0.00  0.00    -0.328 OA
ATOM     20  C   UNL d   1       5.606   5.937 -12.299  0.00  0.00     0.181 C 
ENDBRANCH   4  19
BRANCH   1  21
ATOM     21  S   UNL d   1       9.525   1.520 -15.710  0.00  0.00     0.190 S 
ATOM     22  O   UNL d   1       9.029   0.147 -15.811  0.00  0.00    -0.222 OA
ATOM     23  O   UNL d   1      10.910   1.767 -15.264  0.00  0.00    -0.222 OA
BRANCH  21  24
ATOM     24  C   UNL d   1       9.308   2.325 -17.354  0.00  0.00     0.127 C 
ATOM     25  C   UNL d   1       9.813   3.773 -17.351  0.00  0.00     0.018 C 
ENDBRANCH  21  24
ENDBRANCH   1  21
TORSDOF 6
