REMARK  3 active torsions:
REMARK  status: ('A' for Active; 'I' for Inactive)
REMARK    1  A    between atoms: C_7  and  N_8 
REMARK    2  A    between atoms: N_8  and  S_9 
REMARK    3  A    between atoms: S_9  and  C_12 
ROOT
ATOM      1  S   UNL d   1       9.286   5.617  -9.130  0.00  0.00     0.300 S 
ATOM      2  O   UNL d   1       7.863   5.596  -8.778  0.00  0.00    -0.198 OA
ATOM      3  O   UNL d   1      10.080   4.420  -8.851  0.00  0.00    -0.198 OA
ENDROOT
BRANCH   1   4
ATOM      4  N   UNL d   1       9.438   6.008 -10.828  0.00  0.00     0.034 NA
BRANCH   4   5
ATOM      5  C   UNL d   1       8.964   5.259 -11.870  0.00  0.00     0.760 A 
ATOM      6  N   UNL d   1       9.717   5.232 -12.979  0.00  0.00    -0.063 NA
ATOM      7  C   UNL d   1       9.203   4.559 -14.034  0.00  0.00     0.079 A 
ATOM      8  C   UNL d   1       7.937   3.950 -13.979  0.00  0.00     0.031 A 
ATOM      9  C   UNL d   1      10.054   4.494 -15.287  0.00  0.00     0.053 C 
ATOM     10  C   UNL d   1       7.236   4.075 -12.771  0.00  0.00     0.079 A 
ATOM     11  C   UNL d   1       5.848   3.494 -12.581  0.00  0.00     0.053 C 
ATOM     12  N   UNL d   1       7.772   4.701 -11.719  0.00  0.00    -0.063 NA
ENDBRANCH   4   5
ENDBRANCH   1   4
BRANCH   1  13
ATOM     13  C   UNL d   1      10.044   7.016  -8.333  0.00  0.00     0.106 A 
ATOM     14  C   UNL d   1       9.462   7.534  -7.162  0.00  0.00     0.014 A 
ATOM     15  C   UNL d   1      10.062   8.636  -6.523  0.00  0.00     0.015 A 
ATOM     16  C   UNL d   1      11.231   9.212  -7.052  0.00  0.00     0.070 A 
ATOM     17  C   UNL d   1      11.812   8.691  -8.223  0.00  0.00     0.015 A 
ATOM     18  N   UNL d   1      11.807  10.314  -6.425  0.00  0.00    -0.101 NA
ATOM     19  C   UNL d   1      11.219   7.593  -8.866  0.00  0.00     0.014 A 
ENDBRANCH   1  13
TORSDOF 3
