REMARK  3 active torsions:
REMARK  status: ('A' for Active; 'I' for Inactive)
REMARK    1  A    between atoms: C_5  and  C_6 
REMARK    2  A    between atoms: N_8  and  C_9 
REMARK    3  A    between atoms: C_19  and  C_20 
ROOT
ATOM      1  C   UNL d   1      10.122   0.317 -17.992  0.00  0.00    -0.003 A 
ATOM      2  C   UNL d   1       8.980  -0.269 -17.510  0.00  0.00     0.076 A 
ATOM      3  N   UNL d   1       8.403   0.528 -16.526  0.00  0.00    -0.305 N 
ATOM      4  C   UNL d   1       9.182   1.670 -16.356  0.00  0.00     0.064 A 
ATOM      5  C   UNL d   1       9.057   2.798 -15.520  0.00  0.00     0.018 A 
ATOM      6  C   UNL d   1      10.017   3.822 -15.575  0.00  0.00     0.005 A 
ATOM      7  C   UNL d   1      11.112   3.741 -16.463  0.00  0.00     0.038 A 
ATOM      8  C   UNL d   1      11.212   2.607 -17.298  0.00  0.00     0.004 A 
ATOM      9  C   UNL d   1      10.268   1.552 -17.270  0.00  0.00     0.014 A 
ENDROOT
BRANCH   1  10
ATOM     10  C   UNL d   1      11.025  -0.219 -19.067  0.00  0.00     0.028 C 
ATOM     11  C   UNL d   1      12.462  -0.409 -18.548  0.00  0.00     0.040 C 
ATOM     12  C   UNL d   1      13.430  -0.814 -19.666  0.00  0.00     0.251 C 
ATOM     13  N   UNL d   1      13.405   0.188 -20.731  0.00  0.00     0.139 N 
ATOM     14  C   UNL d   1      14.382  -0.174 -21.748  0.00  0.00     0.285 C 
ATOM     15  C   UNL d   1      12.074   0.248 -21.336  0.00  0.00     0.251 C 
ATOM     16  C   UNL d   1      11.037   0.705 -20.298  0.00  0.00     0.040 C 
ENDBRANCH   1  10
BRANCH   3  17
ATOM     17  C   UNL d   1       7.211   0.216 -15.827  0.00  0.00     0.064 A 
ATOM     18  C   UNL d   1       7.120   0.434 -14.435  0.00  0.00     0.020 A 
ATOM     19  C   UNL d   1       5.931   0.132 -13.746  0.00  0.00     0.031 A 
ATOM     20  C   UNL d   1       4.835  -0.415 -14.438  0.00  0.00     0.140 A 
ATOM     21  C   UNL d   1       4.928  -0.665 -15.819  0.00  0.00     0.031 A 
ATOM     22  F   UNL d   1       3.698  -0.709 -13.766  0.00  0.00    -0.204 F 
ATOM     23  C   UNL d   1       6.111  -0.344 -16.516  0.00  0.00     0.020 A 
ENDBRANCH   3  17
BRANCH   7  24
ATOM     24  C   UNL d   1      12.122   4.815 -16.530  0.00  0.00     0.183 A 
ATOM     25  N   UNL d   1      11.868   6.037 -16.064  0.00  0.00    -0.148 NA
ATOM     26  N   UNL d   1      13.023   6.684 -16.337  0.00  0.00    -0.228 N 
ATOM     27  C   UNL d   1      13.864   5.820 -16.913  0.00  0.00     0.197 A 
ATOM     28  C   UNL d   1      13.186   8.080 -16.005  0.00  0.00     0.156 C 
ATOM     29  N   UNL d   1      13.358   4.604 -17.076  0.00  0.00    -0.204 NA
ENDBRANCH   7  24
TORSDOF 3
