REMARK  6 active torsions:
REMARK  status: ('A' for Active; 'I' for Inactive)
REMARK       I    between atoms: C_2  and  N_3 
REMARK    1  A    between atoms: C_2  and  C_27 
REMARK    2  A    between atoms: N_3  and  C_4 
REMARK    3  A    between atoms: C_7  and  C_8 
REMARK    4  A    between atoms: C_8  and  C_9 
REMARK    5  A    between atoms: C_9  and  N_10 
REMARK    6  A    between atoms: C_13  and  C_14 
ROOT
ATOM      1  C   UNL d   1       8.026   4.461 -13.329  0.00  0.00     0.035 C 
ENDROOT
BRANCH   1   2
ATOM      2  C   UNL d   1       8.213   5.377 -12.116  0.00  0.00     0.002 C 
ATOM      3  C   UNL d   1       8.397   4.597 -10.812  0.00  0.00     0.002 C 
ATOM      4  C   UNL d   1       8.570   5.471  -9.585  0.00  0.00     0.024 C 
ATOM      5  C   UNL d   1       9.741   6.426  -9.836  0.00  0.00     0.106 C 
ATOM      6  C   UNL d   1       9.545   7.256 -11.116  0.00  0.00     0.024 C 
ATOM      7  C   UNL d   1       9.365   6.354 -12.337  0.00  0.00     0.002 C 
BRANCH   5   8
ATOM      8  N   UNL d   1       9.877   7.338  -8.727  0.00  0.00    -0.238 NA
ATOM      9  C   UNL d   1      10.566   7.052  -7.605  0.00  0.00     0.279 C 
ATOM     10  O   UNL d   1      11.097   5.984  -7.426  0.00  0.00    -0.268 OA
BRANCH   9  11
ATOM     11  C   UNL d   1      10.665   8.145  -6.539  0.00  0.00     0.198 C 
ATOM     12  C   UNL d   1      11.768   9.136  -6.965  0.00  0.00     0.040 C 
ATOM     13  C   UNL d   1      12.025  10.207  -5.887  0.00  0.00     0.003 C 
ATOM     14  C   UNL d   1      12.318   9.585  -4.504  0.00  0.00     0.000 C 
ATOM     15  C   UNL d   1      11.208   8.640  -4.095  0.00  0.00     0.003 C 
ATOM     16  C   UNL d   1      10.968   7.543  -5.143  0.00  0.00     0.040 C 
ATOM     17  O   UNL d   1       9.415   8.785  -6.452  0.00  0.00    -0.216 OA
ENDBRANCH   9  11
ENDBRANCH   5   8
ENDBRANCH   1   2
BRANCH   1  18
ATOM     18  C   UNL d   1       9.069   3.313 -13.433  0.00  0.00     0.250 C 
BRANCH  18  19
ATOM     19  N   UNL d   1       8.724   2.327 -14.449  0.00  0.00     0.137 N 
ATOM     20  C   UNL d   1       7.282   2.075 -14.476  0.00  0.00     0.251 C 
ATOM     21  C   UNL d   1       6.933   0.953 -15.426  0.00  0.00     0.040 C 
ATOM     22  C   UNL d   1       7.413   1.280 -16.853  0.00  0.00     0.028 C 
ATOM     23  C   UNL d   1       8.906   1.678 -16.787  0.00  0.00     0.040 C 
ATOM     24  C   UNL d   1       9.186   2.766 -15.755  0.00  0.00     0.251 C 
BRANCH  22  25
ATOM     25  C   UNL d   1       7.157   0.119 -17.814  0.00  0.00     0.002 A 
ATOM     26  C   UNL d   1       5.947  -0.607 -17.791  0.00  0.00     0.115 A 
ATOM     27  C   UNL d   1       5.736  -1.704 -18.613  0.00  0.00     0.119 A 
ATOM     28  O   UNL d   1       4.851  -0.429 -17.010  0.00  0.00    -0.300 OA
ATOM     29  C   UNL d   1       6.705  -2.137 -19.526  0.00  0.00     0.026 A 
ATOM     30  O   UNL d   1       4.508  -2.233 -18.363  0.00  0.00    -0.300 OA
ATOM     31  C   UNL d   1       7.923  -1.416 -19.588  0.00  0.00     0.002 A 
ATOM     32  C   UNL d   1       8.144  -0.305 -18.749  0.00  0.00    -0.002 A 
ATOM     33  C   UNL d   1       3.948  -1.444 -17.347  0.00  0.00     0.304 A 
ENDBRANCH  22  25
ENDBRANCH  18  19
ENDBRANCH   1  18
TORSDOF 6
