REMARK  3 active torsions:
REMARK  status: ('A' for Active; 'I' for Inactive)
REMARK    1  A    between atoms: C_2  and  C_3 
REMARK    2  A    between atoms: C_2  and  C_9 
REMARK    3  A    between atoms: C_16  and  C_17 
ROOT
ATOM      1  C   UNL d   1      10.243   7.147  -8.523  0.00  0.00     0.099 A 
ATOM      2  C   UNL d   1       9.746   5.950  -8.062  0.00  0.00     0.022 A 
ATOM      3  C   UNL d   1       9.092   5.270  -9.125  0.00  0.00     0.015 A 
ATOM      4  C   UNL d   1       9.124   6.116 -10.203  0.00  0.00     0.047 A 
ATOM      5  N   UNL d   1       9.804   7.236  -9.840  0.00  0.00    -0.328 N 
ATOM      6  C   UNL d   1       9.864   8.263 -10.850  0.00  0.00     0.107 A 
ATOM      7  C   UNL d   1       9.078   7.645 -12.036  0.00  0.00     0.041 A 
ATOM      8  C   UNL d   1       8.622   6.224 -11.589  0.00  0.00     0.127 A 
ENDROOT
BRANCH   1   9
ATOM      9  C   UNL d   1      11.039   8.232  -7.899  0.00  0.00     0.211 C 
ATOM     10  O   UNL d   1      11.447   9.179  -8.566  0.00  0.00    -0.285 OA
BRANCH   9  11
ATOM     11  C   UNL d   1      11.297   8.189  -6.426  0.00  0.00     0.040 A 
ATOM     12  C   UNL d   1      11.460   6.965  -5.739  0.00  0.00     0.003 A 
ATOM     13  C   UNL d   1      11.724   6.953  -4.357  0.00  0.00     0.000 A 
ATOM     14  C   UNL d   1      11.865   8.162  -3.637  0.00  0.00     0.000 A 
ATOM     15  C   UNL d   1      11.728   9.390  -4.313  0.00  0.00     0.000 A 
ATOM     16  C   UNL d   1      11.447   9.409  -5.700  0.00  0.00     0.003 A 
ENDBRANCH   9  11
ENDBRANCH   1   9
BRANCH   8  17
ATOM     17  C   UNL d   1       9.183   5.082 -12.449  0.00  0.00     0.191 C 
ATOM     18  O   UNL d   1      10.257   5.136 -13.053  0.00  0.00    -0.647 OA
ATOM     19  O   UNL d   1       8.368   3.991 -12.412  0.00  0.00    -0.647 OA
ENDBRANCH   8  17
TORSDOF 3
