REMARK  6 active torsions:
REMARK  status: ('A' for Active; 'I' for Inactive)
REMARK    1  A    between atoms: C_2  and  C_3 
REMARK       I    between atoms: C_2  and  N_12 
REMARK    2  A    between atoms: C_4  and  C_5 
REMARK    3  A    between atoms: N_12  and  C_13 
REMARK    4  A    between atoms: C_16  and  C_17 
REMARK    5  A    between atoms: C_17  and  C_18 
REMARK    6  A    between atoms: C_18  and  N_19 
ROOT
ATOM      1  C   UNL d   1      11.073   2.944 -15.814  0.00  0.00     0.107 C 
ATOM      2  C   UNL d   1       9.918   3.909 -16.247  0.00  0.00     0.024 C 
ATOM      3  C   UNL d   1       9.569   4.903 -15.141  0.00  0.00     0.002 C 
ATOM      4  C   UNL d   1       9.303   4.210 -13.793  0.00  0.00     0.002 C 
ATOM      5  C   UNL d   1      10.523   3.355 -13.389  0.00  0.00     0.002 C 
ATOM      6  C   UNL d   1      10.920   2.298 -14.412  0.00  0.00     0.024 C 
ENDROOT
BRANCH   1   7
ATOM      7  N   UNL d   1      11.295   1.920 -16.841  0.00  0.00    -0.236 NA
ATOM      8  C   UNL d   1      10.453   0.975 -17.261  0.00  0.00     0.275 C 
ATOM      9  O   UNL d   1      10.766   0.207 -18.170  0.00  0.00    -0.266 OA
BRANCH   8  10
ATOM     10  C   UNL d   1       9.189   0.950 -16.523  0.00  0.00     0.062 C 
ATOM     11  C   UNL d   1       8.200   0.069 -16.749  0.00  0.00     0.005 C 
BRANCH  11  12
ATOM     12  C   UNL d   1       6.971   0.071 -15.904  0.00  0.00     0.000 A 
ATOM     13  C   UNL d   1       6.881   0.762 -14.657  0.00  0.00     0.002 A 
ATOM     14  C   UNL d   1       5.699   0.718 -13.892  0.00  0.00     0.030 A 
ATOM     15  C   UNL d   1       4.600  -0.022 -14.375  0.00  0.00     0.140 A 
ATOM     16  C   UNL d   1       4.678  -0.704 -15.596  0.00  0.00     0.030 A 
ATOM     17  F   UNL d   1       3.449  -0.075 -13.681  0.00  0.00    -0.204 F 
ATOM     18  C   UNL d   1       5.856  -0.649 -16.353  0.00  0.00     0.002 A 
ENDBRANCH  11  12
ENDBRANCH   8  10
ENDBRANCH   1   7
BRANCH   4  19
ATOM     19  C   UNL d   1       9.014   5.266 -12.711  0.00  0.00     0.035 C 
BRANCH  19  20
ATOM     20  C   UNL d   1       8.953   4.695 -11.275  0.00  0.00     0.251 C 
BRANCH  20  21
ATOM     21  N   UNL d   1       8.925   5.756 -10.286  0.00  0.00     0.146 N 
ATOM     22  C   UNL d   1      10.121   6.611 -10.305  0.00  0.00     0.277 C 
ATOM     23  C   UNL d   1      10.132   7.218  -8.947  0.00  0.00     0.009 A 
ATOM     24  C   UNL d   1       9.361   6.430  -8.120  0.00  0.00     0.009 A 
ATOM     25  C   UNL d   1      10.787   8.368  -8.494  0.00  0.00     0.004 A 
ATOM     26  C   UNL d   1       8.824   5.267  -8.906  0.00  0.00     0.277 C 
ATOM     27  C   UNL d   1       9.174   6.758  -6.773  0.00  0.00    -0.002 A 
ATOM     28  C   UNL d   1       9.831   7.905  -6.284  0.00  0.00     0.006 A 
ATOM     29  C   UNL d   1      10.621   8.706  -7.138  0.00  0.00     0.034 A 
ATOM     30 BR   UNL d   1      11.473  10.255  -6.459  0.00  0.00    -0.049 Br
ENDBRANCH  20  21
ENDBRANCH  19  20
ENDBRANCH   4  19
TORSDOF 6
