REMARK  3 active torsions:
REMARK  status: ('A' for Active; 'I' for Inactive)
REMARK    1  A    between atoms: C_2  and  N_3 
REMARK    2  A    between atoms: C_5  and  C_6 
REMARK    3  A    between atoms: C_15  and  N_16 
ROOT
ATOM      1  N   UNL d   1       8.976   6.165  -8.475  0.00  0.00    -0.326 N 
ATOM      2  C   UNL d   1       8.804   6.204  -9.854  0.00  0.00     0.085 A 
ATOM      3  C   UNL d   1       9.436   7.022 -10.666  0.00  0.00     0.120 A 
ATOM      4  C   UNL d   1      10.396   8.011 -10.107  0.00  0.00     0.204 A 
ATOM      5  O   UNL d   1      10.978   8.828 -10.813  0.00  0.00    -0.286 OA
ATOM      6  C   UNL d   1      10.571   7.964  -8.632  0.00  0.00     0.057 A 
ATOM      7  C   UNL d   1      11.507   8.861  -8.073  0.00  0.00     0.036 A 
ATOM      8  C   UNL d   1      11.721   8.874  -6.692  0.00  0.00     0.156 A 
ATOM      9  F   UNL d   1      12.653   9.707  -6.174  0.00  0.00    -0.203 F 
ATOM     10  C   UNL d   1      11.006   7.985  -5.858  0.00  0.00     0.085 A 
ATOM     11  C   UNL d   1      10.060   7.104  -6.427  0.00  0.00     0.036 A 
ATOM     12  C   UNL d   1       9.845   7.066  -7.832  0.00  0.00     0.065 A 
ENDROOT
BRANCH  10  13
ATOM     13  N   UNL d   1      11.246   7.942  -4.497  0.00  0.00    -0.342 N 
ATOM     14  C   UNL d   1      11.235   9.172  -3.721  0.00  0.00     0.140 C 
ATOM     15  C   UNL d   1      12.459   9.211  -2.822  0.00  0.00     0.314 C 
ATOM     16  N   UNL d   1      12.537   8.011  -1.990  0.00  0.00     0.343 N 
ATOM     17  C   UNL d   1      12.642   6.838  -2.850  0.00  0.00     0.314 C 
ATOM     18  C   UNL d   1      11.411   6.688  -3.743  0.00  0.00     0.140 C 
ENDBRANCH  10  13
BRANCH   1  19
ATOM     19  C   UNL d   1       8.090   5.349  -7.691  0.00  0.00     0.106 C 
ATOM     20  C   UNL d   1       8.273   3.849  -8.127  0.00  0.00     0.026 C 
ENDBRANCH   1  19
BRANCH   3  21
ATOM     21  C   UNL d   1       9.043   6.964 -12.077  0.00  0.00     0.215 C 
ATOM     22  O   UNL d   1       9.578   6.209 -12.880  0.00  0.00    -0.644 OA
ATOM     23  O   UNL d   1       7.893   7.687 -12.358  0.00  0.00    -0.644 OA
ENDBRANCH   3  21
TORSDOF 3
