REMARK  6 active torsions:
REMARK  status: ('A' for Active; 'I' for Inactive)
REMARK    1  A    between atoms: C_6  and  C_7 
REMARK    2  A    between atoms: C_10  and  S_11 
REMARK    3  A    between atoms: S_11  and  C_12 
REMARK    4  A    between atoms: C_12  and  C_13 
REMARK    5  A    between atoms: C_13  and  C_14 
REMARK    6  A    between atoms: C_14  and  N_15 
ROOT
ATOM      1  C   UNL d   1       9.322   2.759 -14.338  0.00  0.00     0.047 C 
ENDROOT
BRANCH   1   2
ATOM      2  C   UNL d   1      10.128   1.505 -14.748  0.00  0.00     0.067 C 
BRANCH   2   3
ATOM      3  S   UNL d   1       9.885   1.108 -16.491  0.00  0.00    -0.075 SA
BRANCH   3   4
ATOM      4  C   UNL d   1       8.217   0.554 -16.476  0.00  0.00     0.193 A 
ATOM      5  N   UNL d   1       7.414   0.548 -15.408  0.00  0.00    -0.122 NA
ATOM      6  N   UNL d   1       6.211   0.114 -15.871  0.00  0.00    -0.126 NA
ATOM      7  C   UNL d   1       6.362  -0.124 -17.182  0.00  0.00     0.191 A 
ATOM      8  N   UNL d   1       7.618   0.141 -17.610  0.00  0.00    -0.287 N 
ATOM      9  C   UNL d   1       8.191   0.036 -18.960  0.00  0.00     0.134 C 
BRANCH   7  10
ATOM     10  C   UNL d   1       5.244  -0.655 -17.941  0.00  0.00     0.151 A 
ATOM     11  C   UNL d   1       4.756  -0.486 -19.226  0.00  0.00     0.087 A 
ATOM     12  C   UNL d   1       5.231   0.354 -20.368  0.00  0.00     0.054 C 
ATOM     13  N   UNL d   1       3.659  -1.313 -19.367  0.00  0.00    -0.221 NA
ATOM     14  C   UNL d   1       3.509  -1.915 -18.195  0.00  0.00     0.225 A 
ATOM     15  O   UNL d   1       4.442  -1.554 -17.281  0.00  0.00    -0.282 OA
ENDBRANCH   7  10
ENDBRANCH   3   4
ENDBRANCH   2   3
ENDBRANCH   1   2
BRANCH   1  16
ATOM     16  C   UNL d   1       9.804   3.373 -13.038  0.00  0.00     0.251 C 
BRANCH  16  17
ATOM     17  N   UNL d   1       9.045   4.583 -12.789  0.00  0.00     0.137 N 
ATOM     18  C   UNL d   1       9.788   5.359 -11.832  0.00  0.00     0.254 C 
ATOM     19  C   UNL d   1       8.779   6.328 -11.280  0.00  0.00     0.052 C 
ATOM     20  C   UNL d   1       7.427   5.657 -11.484  0.00  0.00     0.041 C 
ATOM     21  C   UNL d   1       9.192   6.644  -9.848  0.00  0.00    -0.025 A 
ATOM     22  C   UNL d   1       8.865   7.725 -11.946  0.00  0.00     0.011 C 
ATOM     23  C   UNL d   1       7.783   4.312 -12.089  0.00  0.00     0.251 C 
ATOM     24  C   UNL d   1       9.661   7.949  -9.706  0.00  0.00    -0.026 A 
ATOM     25  C   UNL d   1       9.108   5.808  -8.755  0.00  0.00    -0.004 A 
ATOM     26  C   UNL d   1       9.553   8.673 -10.998  0.00  0.00     0.026 C 
ATOM     27  C   UNL d   1      10.071   8.487  -8.479  0.00  0.00     0.002 A 
ATOM     28  C   UNL d   1      10.037   7.626  -7.390  0.00  0.00     0.034 A 
ATOM     29 BR   UNL d   1      10.720   8.220  -5.726  0.00  0.00    -0.049 Br
ATOM     30  C   UNL d   1       9.540   6.316  -7.526  0.00  0.00     0.006 A 
ENDBRANCH  16  17
ENDBRANCH   1  16
TORSDOF 6
