REMARK  8 active torsions:
REMARK  status: ('A' for Active; 'I' for Inactive)
REMARK       I    between atoms: C_2  and  N_3 
REMARK    1  A    between atoms: C_2  and  C_24 
REMARK    2  A    between atoms: N_3  and  C_4 
REMARK    3  A    between atoms: C_4  and  C_5 
REMARK    4  A    between atoms: C_5  and  C_6 
REMARK    5  A    between atoms: C_6  and  C_7 
REMARK    6  A    between atoms: C_7  and  N_8 
REMARK    7  A    between atoms: N_11  and  C_12 
REMARK    8  A    between atoms: C_16  and  C_17 
ROOT
ATOM      1  C   UNL d   1       9.607   5.484 -13.277  0.00  0.00     0.251 C 
ENDROOT
BRANCH   1   2
ATOM      2  C   UNL d   1       9.049   6.486 -12.225  0.00  0.00     0.037 C 
BRANCH   2   3
ATOM      3  C   UNL d   1       9.626   7.925 -12.357  0.00  0.00     0.029 C 
BRANCH   3   4
ATOM      4  C   UNL d   1       8.925   9.002 -11.582  0.00  0.00     0.129 C 
BRANCH   4   5
ATOM      5  N   UNL d   1       9.438   8.935 -10.205  0.00  0.00    -0.234 NA
ATOM      6  C   UNL d   1      10.658   8.889  -9.670  0.00  0.00     0.275 C 
ATOM      7  O   UNL d   1      11.710   9.193 -10.220  0.00  0.00    -0.266 OA
BRANCH   6   8
ATOM      8  C   UNL d   1      10.668   8.384  -8.274  0.00  0.00     0.058 A 
ATOM      9  C   UNL d   1      11.294   9.176  -7.295  0.00  0.00     0.005 A 
ATOM     10  C   UNL d   1      11.475   8.665  -6.010  0.00  0.00     0.000 A 
ATOM     11  C   UNL d   1      11.031   7.358  -5.697  0.00  0.00     0.000 A 
ATOM     12  C   UNL d   1      12.152   9.437  -5.057  0.00  0.00     0.000 A 
ATOM     13  C   UNL d   1      10.357   6.590  -6.673  0.00  0.00     0.000 A 
ATOM     14  C   UNL d   1      11.287   6.844  -4.413  0.00  0.00     0.000 A 
ATOM     15  C   UNL d   1      10.172   7.104  -7.965  0.00  0.00     0.005 A 
ATOM     16  C   UNL d   1      11.920   7.636  -3.427  0.00  0.00     0.000 A 
ATOM     17  C   UNL d   1      12.353   8.941  -3.754  0.00  0.00     0.000 A 
ENDBRANCH   6   8
ENDBRANCH   4   5
ENDBRANCH   3   4
ENDBRANCH   2   3
ENDBRANCH   1   2
BRANCH   1  18
ATOM     18  N   UNL d   1       8.938   4.186 -13.296  0.00  0.00     0.141 N 
ATOM     19  C   UNL d   1       9.661   3.303 -14.229  0.00  0.00     0.274 C 
ATOM     20  C   UNL d   1       8.993   1.917 -14.249  0.00  0.00     0.137 C 
ATOM     21  N   UNL d   1       7.590   2.059 -14.564  0.00  0.00    -0.344 N 
ATOM     22  C   UNL d   1       6.795   3.027 -13.837  0.00  0.00     0.137 C 
ATOM     23  C   UNL d   1       7.565   4.357 -13.797  0.00  0.00     0.274 C 
BRANCH  21  24
ATOM     24  C   UNL d   1       7.006   1.260 -15.551  0.00  0.00     0.056 A 
ATOM     25  C   UNL d   1       6.027   0.325 -15.194  0.00  0.00     0.021 A 
ATOM     26  C   UNL d   1       5.412  -0.458 -16.186  0.00  0.00     0.073 A 
ATOM     27  C   UNL d   1       5.794  -0.324 -17.539  0.00  0.00     0.004 A 
ATOM     28  C   UNL d   1       6.786   0.614 -17.892  0.00  0.00     0.001 A 
ATOM     29  C   UNL d   1       7.392   1.400 -16.892  0.00  0.00     0.017 A 
BRANCH  26  30
ATOM     30  C   UNL d   1       4.370  -1.484 -15.823  0.00  0.00     0.419 C 
ATOM     31  F   UNL d   1       3.861  -1.245 -14.611  0.00  0.00    -0.166 F 
ATOM     32  F   UNL d   1       3.388  -1.469 -16.716  0.00  0.00    -0.166 F 
ATOM     33  F   UNL d   1       4.992  -2.655 -15.843  0.00  0.00    -0.166 F 
ENDBRANCH  26  30
ENDBRANCH  21  24
ENDBRANCH   1  18
TORSDOF 8
