REMARK  9 active torsions:
REMARK  status: ('A' for Active; 'I' for Inactive)
REMARK    1  A    between atoms: N_2  and  C_4 
REMARK    2  A    between atoms: C_9  and  N_10 
REMARK    3  A    between atoms: N_13  and  C_14 
REMARK    4  A    between atoms: C_14  and  C_15 
REMARK    5  A    between atoms: C_15  and  C_16 
REMARK    6  A    between atoms: C_16  and  C_17 
REMARK    7  A    between atoms: C_17  and  C_18 
REMARK    8  A    between atoms: C_18  and  C_19 
REMARK       I    between atoms: C_19  and  N_21 
REMARK    9  A    between atoms: N_21  and  C_22 
ROOT
ATOM      1  C   UNL d   1       7.446   6.609 -12.809  0.00  0.00     0.035 C 
ENDROOT
BRANCH   1   2
ATOM      2  C   UNL d   1       6.216   5.729 -12.545  0.00  0.00     0.250 C 
BRANCH   2   3
ATOM      3  N   UNL d   1       6.496   4.312 -12.701  0.00  0.00     0.141 N 
ATOM      4  C   UNL d   1       6.840   4.043 -14.086  0.00  0.00     0.274 C 
ATOM      5  C   UNL d   1       7.170   2.612 -14.228  0.00  0.00     0.137 C 
ATOM      6  N   UNL d   1       6.051   1.730 -13.847  0.00  0.00    -0.343 N 
ATOM      7  C   UNL d   1       5.524   2.042 -12.526  0.00  0.00     0.137 C 
ATOM      8  C   UNL d   1       5.272   3.551 -12.425  0.00  0.00     0.274 C 
BRANCH   6   9
ATOM      9  C   UNL d   1       5.562   0.640 -14.629  0.00  0.00     0.072 A 
ATOM     10  C   UNL d   1       6.304   0.044 -15.696  0.00  0.00     0.072 A 
ATOM     11  C   UNL d   1       5.665  -0.901 -16.539  0.00  0.00     0.018 A 
ATOM     12  C   UNL d   1       4.340  -1.311 -16.320  0.00  0.00     0.002 A 
ATOM     13  C   UNL d   1       3.628  -0.790 -15.234  0.00  0.00     0.002 A 
ATOM     14  C   UNL d   1       4.237   0.166 -14.404  0.00  0.00     0.018 A 
BRANCH  10  15
ATOM     15  N   UNL d   1       7.666   0.337 -15.934  0.00  0.00    -0.343 N 
ATOM     16  C   UNL d   1       8.223   0.184 -17.265  0.00  0.00     0.126 C 
ATOM     17  C   UNL d   1       8.572   0.133 -14.801  0.00  0.00     0.126 C 
ENDBRANCH  10  15
ENDBRANCH   6   9
ENDBRANCH   2   3
ENDBRANCH   1   2
BRANCH   1  18
ATOM     18  C   UNL d   1       8.381   6.620 -11.626  0.00  0.00     0.003 C 
BRANCH  18  19
ATOM     19  C   UNL d   1       9.219   7.903 -11.570  0.00  0.00     0.010 C 
BRANCH  19  20
ATOM     20  C   UNL d   1       9.801   8.228 -10.195  0.00  0.00     0.090 C 
BRANCH  20  21
ATOM     21  C   UNL d   1      10.420   7.083  -9.405  0.00  0.00     0.252 C 
ATOM     22  O   UNL d   1      10.578   6.020  -9.924  0.00  0.00    -0.271 OA
ATOM     23  N   UNL d   1      10.839   7.238  -8.152  0.00  0.00    -0.235 NA
BRANCH  23  24
ATOM     24  C   UNL d   1      10.584   8.379  -7.325  0.00  0.00     0.128 C 
ATOM     25  C   UNL d   1      11.000   8.072  -5.901  0.00  0.00    -0.004 A 
ATOM     26  C   UNL d   1      11.674   9.033  -5.121  0.00  0.00    -0.024 A 
ATOM     27  C   UNL d   1      10.733   6.819  -5.336  0.00  0.00    -0.003 A 
ATOM     28  C   UNL d   1      12.009  10.367  -5.689  0.00  0.00     0.026 C 
ATOM     29  C   UNL d   1      12.075   8.775  -3.801  0.00  0.00    -0.004 A 
ATOM     30  C   UNL d   1      11.300  10.732  -6.895  0.00  0.00     0.007 C 
ATOM     31  C   UNL d   1      11.313   9.590  -7.888  0.00  0.00     0.029 C 
ATOM     32  C   UNL d   1      11.826   7.517  -3.252  0.00  0.00    -0.000 A 
ATOM     33  C   UNL d   1      11.167   6.557  -4.032  0.00  0.00    -0.000 A 
ENDBRANCH  23  24
ENDBRANCH  20  21
ENDBRANCH  19  20
ENDBRANCH  18  19
ENDBRANCH   1  18
TORSDOF 9
