REMARK  6 active torsions:
REMARK  status: ('A' for Active; 'I' for Inactive)
REMARK    1  A    between atoms: C_2  and  O_4 
REMARK    2  A    between atoms: O_4  and  C_5 
REMARK    3  A    between atoms: C_10  and  N_11 
REMARK    4  A    between atoms: N_11  and  C_13 
REMARK    5  A    between atoms: N_16  and  C_17 
REMARK    6  A    between atoms: C_17  and  C_18 
ROOT
ATOM      1  C   UNL d   1      10.508   3.550 -15.535  0.00  0.00     0.087 C 
ATOM      2  C   UNL d   1       9.601   4.787 -15.606  0.00  0.00     0.058 C 
ATOM      3  C   UNL d   1       8.638   4.859 -14.417  0.00  0.00     0.253 C 
ATOM      4  N   UNL d   1       9.379   4.890 -13.164  0.00  0.00     0.141 N 
ATOM      5  C   UNL d   1      10.115   3.637 -13.017  0.00  0.00     0.253 C 
ATOM      6  C   UNL d   1      11.159   3.493 -14.136  0.00  0.00     0.058 C 
ENDROOT
BRANCH   1   7
ATOM      7  N   UNL d   1      11.481   3.495 -16.636  0.00  0.00    -0.332 N 
ATOM      8  C   UNL d   1      12.359   2.339 -16.673  0.00  0.00     0.127 C 
BRANCH   7   9
ATOM      9  C   UNL d   1      12.126   4.699 -16.989  0.00  0.00     0.163 A 
ATOM     10  C   UNL d   1      11.602   5.489 -18.045  0.00  0.00     0.128 A 
ATOM     11  C   UNL d   1      12.241   6.725 -18.313  0.00  0.00     0.029 A 
ATOM     12  C   UNL d   1      13.353   7.110 -17.544  0.00  0.00     0.023 A 
ATOM     13  C   UNL d   1      13.796   6.244 -16.529  0.00  0.00     0.101 A 
ATOM     14  N   UNL d   1      13.198   5.069 -16.251  0.00  0.00    -0.225 NA
BRANCH  10  15
ATOM     15  O   UNL d   1      10.508   5.000 -18.743  0.00  0.00    -0.330 OA
BRANCH  15  16
ATOM     16  C   UNL d   1       9.888   5.806 -19.741  0.00  0.00     0.122 C 
ATOM     17  C   UNL d   1       8.995   6.877 -19.093  0.00  0.00     0.033 C 
ATOM     18  C   UNL d   1       9.064   4.876 -20.641  0.00  0.00     0.033 C 
ENDBRANCH  15  16
ENDBRANCH  10  15
ENDBRANCH   7   9
ENDBRANCH   1   7
BRANCH   4  19
ATOM     19  C   UNL d   1       8.447   5.063 -12.050  0.00  0.00     0.277 C 
BRANCH  19  20
ATOM     20  C   UNL d   1       9.084   5.690 -10.824  0.00  0.00     0.011 A 
ATOM     21  C   UNL d   1       8.967   5.078  -9.560  0.00  0.00    -0.002 A 
ATOM     22  C   UNL d   1       9.529   5.696  -8.428  0.00  0.00     0.005 A 
ATOM     23  C   UNL d   1      10.200   6.926  -8.543  0.00  0.00     0.030 A 
ATOM     24  C   UNL d   1      10.312   7.547  -9.801  0.00  0.00     0.005 A 
ATOM     25  I   UNL d   1      11.036   7.824  -6.849  0.00  0.00    -0.043 I 
ATOM     26  C   UNL d   1       9.747   6.929 -10.934  0.00  0.00    -0.002 A 
ENDBRANCH  19  20
ENDBRANCH   4  19
TORSDOF 6
