REMARK  9 active torsions:
REMARK  status: ('A' for Active; 'I' for Inactive)
REMARK    1  A    between atoms: O_2  and  C_3 
REMARK    2  A    between atoms: C_8  and  N_9 
REMARK    3  A    between atoms: N_12  and  C_13 
REMARK    4  A    between atoms: C_13  and  C_14 
REMARK    5  A    between atoms: C_14  and  C_15 
REMARK    6  A    between atoms: C_15  and  C_16 
REMARK    7  A    between atoms: C_16  and  N_17 
REMARK       I    between atoms: N_17  and  C_18 
REMARK    8  A    between atoms: C_18  and  C_20 
REMARK    9  A    between atoms: C_23  and  C_24 
ROOT
ATOM      1  C   UNL d   1       9.354   4.380 -12.609  0.00  0.00     0.029 C 
ENDROOT
BRANCH   1   2
ATOM      2  C   UNL d   1       8.719   3.934 -13.934  0.00  0.00     0.037 C 
BRANCH   2   3
ATOM      3  C   UNL d   1       9.177   2.525 -14.373  0.00  0.00     0.251 C 
BRANCH   3   4
ATOM      4  N   UNL d   1       8.655   2.164 -15.694  0.00  0.00     0.141 N 
ATOM      5  C   UNL d   1       7.222   1.847 -15.615  0.00  0.00     0.274 C 
ATOM      6  C   UNL d   1       6.670   1.514 -17.014  0.00  0.00     0.137 C 
ATOM      7  N   UNL d   1       7.420   0.422 -17.613  0.00  0.00    -0.343 N 
ATOM      8  C   UNL d   1       8.868   0.586 -17.608  0.00  0.00     0.137 C 
ATOM      9  C   UNL d   1       9.360   0.973 -16.191  0.00  0.00     0.274 C 
BRANCH   7  10
ATOM     10  C   UNL d   1       6.796  -0.773 -18.026  0.00  0.00     0.079 A 
ATOM     11  C   UNL d   1       5.786  -1.395 -17.240  0.00  0.00     0.110 A 
ATOM     12  C   UNL d   1       5.157  -2.572 -17.728  0.00  0.00     0.026 A 
ATOM     13  C   UNL d   1       5.533  -3.128 -18.963  0.00  0.00     0.002 A 
ATOM     14  C   UNL d   1       6.542  -2.522 -19.728  0.00  0.00     0.002 A 
ATOM     15  C   UNL d   1       7.173  -1.351 -19.259  0.00  0.00     0.019 A 
BRANCH  11  16
ATOM     16  O   UNL d   1       5.471  -0.829 -16.021  0.00  0.00    -0.327 OA
ATOM     17  C   UNL d   1       4.588  -1.506 -15.153  0.00  0.00     0.181 C 
ENDBRANCH  11  16
ENDBRANCH   7  10
ENDBRANCH   3   4
ENDBRANCH   2   3
ENDBRANCH   1   2
BRANCH   1  18
ATOM     18  C   UNL d   1       8.909   5.792 -12.184  0.00  0.00     0.129 C 
BRANCH  18  19
ATOM     19  N   UNL d   1       9.461   6.147 -10.882  0.00  0.00    -0.234 NA
ATOM     20  C   UNL d   1       9.840   7.380 -10.496  0.00  0.00     0.275 C 
ATOM     21  O   UNL d   1       9.862   8.360 -11.237  0.00  0.00    -0.266 OA
BRANCH  20  22
ATOM     22  C   UNL d   1      10.273   7.501  -9.070  0.00  0.00     0.058 A 
ATOM     23  C   UNL d   1      11.318   8.384  -8.726  0.00  0.00     0.005 A 
ATOM     24  C   UNL d   1      11.703   8.531  -7.381  0.00  0.00     0.000 A 
ATOM     25  C   UNL d   1      11.046   7.813  -6.356  0.00  0.00     0.000 A 
ATOM     26  C   UNL d   1       9.985   6.949  -6.711  0.00  0.00     0.000 A 
ATOM     27  C   UNL d   1       9.593   6.802  -8.052  0.00  0.00     0.005 A 
BRANCH  25  28
ATOM     28  C   UNL d   1      11.458   7.952  -4.951  0.00  0.00     0.000 A 
ATOM     29  C   UNL d   1      11.689   9.227  -4.392  0.00  0.00     0.000 A 
ATOM     30  C   UNL d   1      12.082   9.359  -3.048  0.00  0.00     0.000 A 
ATOM     31  C   UNL d   1      12.260   8.220  -2.245  0.00  0.00     0.000 A 
ATOM     32  C   UNL d   1      12.037   6.942  -2.787  0.00  0.00     0.000 A 
ATOM     33  C   UNL d   1      11.636   6.814  -4.131  0.00  0.00     0.000 A 
ENDBRANCH  25  28
ENDBRANCH  20  22
ENDBRANCH  18  19
ENDBRANCH   1  18
TORSDOF 9
