REMARK  2 active torsions:
REMARK  status: ('A' for Active; 'I' for Inactive)
REMARK    1  A    between atoms: C_8  and  N_9 
REMARK       I    between atoms: N_9  and  C_10 
REMARK    2  A    between atoms: C_10  and  C_12 
ROOT
ATOM      1  C   UNL d   1       8.522   6.969  -6.472  0.00  0.00     0.033 C 
ATOM      2  C   UNL d   1       9.147   6.954  -7.844  0.00  0.00    -0.004 A 
ATOM      3  C   UNL d   1       8.702   5.967  -8.745  0.00  0.00    -0.003 A 
ATOM      4  C   UNL d   1       9.215   5.938 -10.048  0.00  0.00    -0.001 A 
ATOM      5  C   UNL d   1      10.145   6.923 -10.431  0.00  0.00    -0.003 A 
ATOM      6  C   UNL d   1      10.598   7.937  -9.564  0.00  0.00    -0.004 A 
ATOM      7  C   UNL d   1      11.591   8.972 -10.121  0.00  0.00     0.033 C 
ATOM      8  C   UNL d   1      10.087   7.947  -8.231  0.00  0.00     0.076 A 
ENDROOT
BRANCH   8   9
ATOM      9  N   UNL d   1      10.423   8.934  -7.273  0.00  0.00    -0.211 NA
ATOM     10  C   UNL d   1      11.662   9.176  -6.857  0.00  0.00     0.293 C 
ATOM     11  O   UNL d   1      12.623   8.768  -7.479  0.00  0.00    -0.268 OA
BRANCH  10  12
ATOM     12  C   UNL d   1      11.877  10.022  -5.591  0.00  0.00     0.381 C 
ATOM     13  C   UNL d   1      12.941   9.390  -4.677  0.00  0.00     0.052 C 
ATOM     14  N   UNL d   1      10.614  10.246  -4.829  0.00  0.00     0.626 N 
ENDBRANCH  10  12
ENDBRANCH   8   9
TORSDOF 2
