REMARK  5 active torsions:
REMARK  status: ('A' for Active; 'I' for Inactive)
REMARK    1  A    between atoms: O_2  and  C_3 
REMARK    2  A    between atoms: C_3  and  C_5 
REMARK    3  A    between atoms: C_16  and  C_17 
REMARK    4  A    between atoms: C_17  and  N_18 
REMARK    5  A    between atoms: C_21  and  N_22 
ROOT
ATOM      1  C   UNL d   1       6.738  -0.682 -18.935  0.00  0.00     0.144 A 
ATOM      2  C   UNL d   1       7.213   0.430 -18.256  0.00  0.00     0.028 A 
ATOM      3  C   UNL d   1       6.652   0.419 -16.901  0.00  0.00     0.044 A 
ATOM      4  C   UNL d   1       6.694   1.187 -15.671  0.00  0.00     0.118 A 
ATOM      5  C   UNL d   1       5.898   0.770 -14.565  0.00  0.00     0.116 A 
ATOM      6  C   UNL d   1       5.113  -0.391 -14.606  0.00  0.00     0.028 A 
ATOM      7  C   UNL d   1       5.069  -1.152 -15.766  0.00  0.00     0.021 A 
ATOM      8  C   UNL d   1       5.818  -0.748 -16.864  0.00  0.00     0.084 A 
ATOM      9  N   UNL d   1       5.910  -1.369 -18.082  0.00  0.00    -0.240 NA
ATOM     10  O   UNL d   1       5.845   1.475 -13.387  0.00  0.00    -0.326 OA
ATOM     11  C   UNL d   1       6.303   2.812 -13.432  0.00  0.00     0.181 C 
ATOM     12  C   UNL d   1       7.651   2.808 -14.173  0.00  0.00     0.185 C 
ATOM     13  O   UNL d   1       7.471   2.337 -15.534  0.00  0.00    -0.327 OA
ENDROOT
BRANCH  12  14
ATOM     14  C   UNL d   1       8.298   4.215 -14.123  0.00  0.00     0.283 C 
BRANCH  14  15
ATOM     15  N   UNL d   1       8.476   4.767 -12.777  0.00  0.00     0.140 N 
ATOM     16  C   UNL d   1       9.565   4.078 -12.080  0.00  0.00     0.252 C 
ATOM     17  C   UNL d   1       9.610   4.585 -10.636  0.00  0.00     0.058 C 
ATOM     18  C   UNL d   1       9.872   6.111 -10.539  0.00  0.00     0.093 C 
ATOM     19  C   UNL d   1       8.862   6.825 -11.436  0.00  0.00     0.058 C 
ATOM     20  C   UNL d   1       8.784   6.204 -12.840  0.00  0.00     0.252 C 
BRANCH  18  21
ATOM     21  N   UNL d   1       9.856   6.591  -9.165  0.00  0.00    -0.292 N 
ATOM     22  C   UNL d   1      10.784   7.407  -8.566  0.00  0.00     0.081 A 
ATOM     23  C   UNL d   1      10.299   7.615  -7.237  0.00  0.00     0.101 A 
ATOM     24  C   UNL d   1      12.012   7.991  -8.970  0.00  0.00     0.019 A 
ATOM     25  N   UNL d   1       9.136   6.960  -7.019  0.00  0.00    -0.203 NA
ATOM     26  C   UNL d   1      11.026   8.429  -6.343  0.00  0.00     0.021 A 
ATOM     27  C   UNL d   1       8.941   6.377  -8.180  0.00  0.00     0.282 A 
ATOM     28  O   UNL d   1       7.875   5.642  -8.440  0.00  0.00    -0.149 OA
ATOM     29  C   UNL d   1      12.231   9.029  -6.753  0.00  0.00     0.002 A 
ATOM     30  C   UNL d   1      12.736   8.753  -8.049  0.00  0.00     0.002 A 
ENDBRANCH  18  21
ENDBRANCH  14  15
ENDBRANCH  12  14
BRANCH   1  31
ATOM     31  C   UNL d   1       6.941  -1.237 -20.279  0.00  0.00     0.314 C 
ATOM     32  O   UNL d   1       6.511  -2.356 -20.564  0.00  0.00    -0.257 OA
BRANCH  31  33
ATOM     33  O   UNL d   1       7.602  -0.433 -21.133  0.00  0.00    -0.295 OA
ATOM     34  C   UNL d   1       7.899  -0.904 -22.448  0.00  0.00     0.185 C 
ENDBRANCH  31  33
ENDBRANCH   1  31
TORSDOF 5
