REMARK  10 active torsions:
REMARK  status: ('A' for Active; 'I' for Inactive)
REMARK    1  A    between atoms: O_2  and  C_3 
REMARK    2  A    between atoms: C_8  and  C_9 
REMARK    3  A    between atoms: C_11  and  C_12 
REMARK    4  A    between atoms: C_12  and  N_13 
REMARK    5  A    between atoms: N_13  and  C_14 
REMARK    6  A    between atoms: C_14  and  C_15 
REMARK    7  A    between atoms: C_15  and  C_16 
REMARK    8  A    between atoms: C_16  and  C_17 
REMARK    9  A    between atoms: C_17  and  O_18 
REMARK   10  A    between atoms: O_18  and  C_19 
ROOT
ATOM      1  C   UNL d   1       8.363   4.472 -11.885  0.00  0.00     0.041 C 
ENDROOT
BRANCH   1   2
ATOM      2  C   UNL d   1       9.283   4.882 -10.751  0.00  0.00     0.290 C 
BRANCH   2   3
ATOM      3  N   UNL d   1       8.669   5.968 -10.030  0.00  0.00     0.339 N 
BRANCH   3   4
ATOM      4  C   UNL d   1       9.542   6.580  -9.055  0.00  0.00     0.290 C 
BRANCH   4   5
ATOM      5  C   UNL d   1      10.701   7.375  -9.661  0.00  0.00     0.041 A 
ATOM      6  C   UNL d   1      11.719   8.020  -8.754  0.00  0.00     0.026 A 
ATOM      7  C   UNL d   1      10.783   8.882  -9.575  0.00  0.00     0.007 A 
BRANCH   6   8
ATOM      8  C   UNL d   1      11.587   7.896  -7.267  0.00  0.00    -0.000 A 
ATOM      9  C   UNL d   1      11.448   9.049  -6.471  0.00  0.00     0.090 A 
ATOM     10  C   UNL d   1      11.311   8.945  -5.070  0.00  0.00     0.024 A 
ATOM     11  C   UNL d   1      11.334   7.678  -4.475  0.00  0.00     0.002 A 
ATOM     12  C   UNL d   1      11.455   6.526  -5.255  0.00  0.00    -0.000 A 
ATOM     13  C   UNL d   1      11.590   6.629  -6.649  0.00  0.00    -0.002 A 
BRANCH   9  14
ATOM     14  O   UNL d   1      11.391  10.245  -7.106  0.00  0.00    -0.328 OA
ATOM     15  C   UNL d   1      11.987  11.315  -6.421  0.00  0.00     0.181 C 
ENDBRANCH   9  14
ENDBRANCH   6   8
ENDBRANCH   4   5
ENDBRANCH   3   4
ENDBRANCH   2   3
ENDBRANCH   1   2
BRANCH   1  16
ATOM     16  C   UNL d   1       9.171   3.644 -12.885  0.00  0.00     0.035 C 
BRANCH  16  17
ATOM     17  C   UNL d   1       8.333   3.143 -14.061  0.00  0.00     0.149 C 
BRANCH  17  18
ATOM     18  O   UNL d   1       9.168   2.352 -14.905  0.00  0.00    -0.331 OA
BRANCH  18  19
ATOM     19  C   UNL d   1      10.066   3.046 -15.679  0.00  0.00     0.096 A 
ATOM     20  C   UNL d   1       9.713   4.197 -16.427  0.00  0.00     0.043 A 
ATOM     21  C   UNL d   1      10.676   4.879 -17.186  0.00  0.00     0.087 A 
ATOM     22  C   UNL d   1      12.007   4.436 -17.199  0.00  0.00     0.018 A 
ATOM     23  N   UNL d   1      10.304   6.016 -17.937  0.00  0.00    -0.208 NA
ATOM     24  C   UNL d   1      12.367   3.283 -16.469  0.00  0.00     0.004 A 
ATOM     25  C   UNL d   1      12.948   5.220 -18.002  0.00  0.00     0.006 A 
ATOM     26  C   UNL d   1      11.390   2.585 -15.727  0.00  0.00     0.024 A 
ATOM     27  C   UNL d   1      12.540   6.304 -18.697  0.00  0.00     0.063 A 
ATOM     28  C   UNL d   1      11.144   6.747 -18.698  0.00  0.00     0.279 A 
ATOM     29  O   UNL d   1      10.731   7.711 -19.327  0.00  0.00    -0.265 OA
ENDBRANCH  18  19
ENDBRANCH  17  18
ENDBRANCH  16  17
ENDBRANCH   1  16
TORSDOF 10
