REMARK  7 active torsions:
REMARK  status: ('A' for Active; 'I' for Inactive)
REMARK    1  A    between atoms: C_2  and  C_3 
REMARK    2  A    between atoms: N_14  and  C_15 
REMARK    3  A    between atoms: C_15  and  C_16 
REMARK    4  A    between atoms: C_16  and  C_17 
REMARK    5  A    between atoms: C_17  and  S_18 
REMARK    6  A    between atoms: S_18  and  C_19 
REMARK    7  A    between atoms: C_22  and  C_23 
ROOT
ATOM      1  C   UNL d   1      11.774   8.925  -4.828  0.00  0.00     0.088 A 
ATOM      2  N   UNL d   1      10.925   7.916  -5.009  0.00  0.00    -0.243 NA
ATOM      3  C   UNL d   1      10.532   7.831  -6.337  0.00  0.00     0.087 A 
ATOM      4  C   UNL d   1       9.613   6.915  -6.883  0.00  0.00     0.015 A 
ATOM      5  C   UNL d   1       9.345   6.882  -8.267  0.00  0.00    -0.022 A 
ATOM      6  C   UNL d   1       9.966   7.816  -9.127  0.00  0.00    -0.024 A 
ATOM      7  C   UNL d   1      10.885   8.747  -8.598  0.00  0.00     0.004 A 
ATOM      8  C   UNL d   1      11.149   8.755  -7.216  0.00  0.00     0.048 A 
ATOM      9  S   UNL d   1      12.190   9.819  -6.279  0.00  0.00    -0.071 SA
ATOM     10  C   UNL d   1       9.688   7.822 -10.618  0.00  0.00     0.061 C 
ATOM     11  C   UNL d   1       9.992   6.499 -11.270  0.00  0.00     0.255 C 
ATOM     12  N   UNL d   1       9.029   5.414 -11.142  0.00  0.00     0.138 N 
ATOM     13  C   UNL d   1       8.964   4.861  -9.796  0.00  0.00     0.255 C 
ATOM     14  C   UNL d   1       8.371   5.841  -8.787  0.00  0.00     0.061 C 
ENDROOT
BRANCH  12  15
ATOM     15  C   UNL d   1       9.358   4.364 -12.106  0.00  0.00     0.251 C 
BRANCH  15  16
ATOM     16  C   UNL d   1       8.582   4.535 -13.428  0.00  0.00     0.047 C 
BRANCH  16  17
ATOM     17  C   UNL d   1       9.357   4.078 -14.674  0.00  0.00     0.067 C 
BRANCH  17  18
ATOM     18  S   UNL d   1      10.137   2.445 -14.463  0.00  0.00    -0.075 SA
BRANCH  18  19
ATOM     19  C   UNL d   1      11.057   2.340 -15.961  0.00  0.00     0.193 A 
ATOM     20  N   UNL d   1      12.051   3.194 -16.306  0.00  0.00    -0.287 N 
ATOM     21  C   UNL d   1      12.433   2.694 -17.505  0.00  0.00     0.191 A 
ATOM     22  C   UNL d   1      12.598   4.333 -15.584  0.00  0.00     0.134 C 
ATOM     23  N   UNL d   1      11.758   1.595 -17.851  0.00  0.00    -0.126 NA
ATOM     24  N   UNL d   1      10.858   1.364 -16.842  0.00  0.00    -0.122 NA
BRANCH  21  25
ATOM     25  C   UNL d   1      13.483   3.244 -18.360  0.00  0.00     0.151 A 
ATOM     26  C   UNL d   1      14.173   2.725 -19.430  0.00  0.00     0.087 A 
ATOM     27  N   UNL d   1      15.063   3.688 -19.883  0.00  0.00    -0.221 NA
ATOM     28  C   UNL d   1      14.082   1.381 -20.083  0.00  0.00     0.054 C 
ATOM     29  C   UNL d   1      14.882   4.723 -19.069  0.00  0.00     0.225 A 
ATOM     30  O   UNL d   1      13.941   4.513 -18.114  0.00  0.00    -0.282 OA
ENDBRANCH  21  25
ENDBRANCH  18  19
ENDBRANCH  17  18
ENDBRANCH  16  17
ENDBRANCH  15  16
ENDBRANCH  12  15
BRANCH   1  31
ATOM     31  C   UNL d   1      12.305   9.280  -3.483  0.00  0.00     0.053 C 
ATOM     32  C   UNL d   1      12.749   8.054  -2.683  0.00  0.00     0.007 C 
ENDBRANCH   1  31
TORSDOF 7
