REMARK  3 active torsions:
REMARK  status: ('A' for Active; 'I' for Inactive)
REMARK    1  A    between atoms: C_16  and  C_17 
REMARK       I    between atoms: C_17  and  N_19 
REMARK    2  A    between atoms: N_19  and  C_20 
REMARK    3  A    between atoms: C_20  and  C_21 
ROOT
ATOM      1  C   UNL d   1       6.638   0.221 -14.290  0.00  0.00     0.134 C 
ATOM      2  N   UNL d   1       7.360   0.420 -15.559  0.00  0.00    -0.293 N 
ATOM      3  C   UNL d   1       6.728  -0.016 -16.685  0.00  0.00     0.261 C 
ATOM      4  O   UNL d   1       5.653  -0.619 -16.640  0.00  0.00    -0.267 OA
ATOM      5  C   UNL d   1       7.261   0.320 -18.054  0.00  0.00     0.065 A 
ATOM      6  C   UNL d   1       6.349   0.790 -19.024  0.00  0.00     0.005 A 
ATOM      7  C   UNL d   1       6.770   1.068 -20.336  0.00  0.00     0.000 A 
ATOM      8  C   UNL d   1       8.111   0.853 -20.699  0.00  0.00     0.001 A 
ATOM      9  C   UNL d   1       9.029   0.357 -19.754  0.00  0.00     0.009 A 
ATOM     10  C   UNL d   1       8.599   0.083 -18.440  0.00  0.00     0.065 A 
ATOM     11  S   UNL d   1       9.821  -0.572 -17.260  0.00  0.00     0.090 S 
ATOM     12  O   UNL d   1      11.177  -0.530 -17.972  0.00  0.00    -0.247 OA
ATOM     13  C   UNL d   1       9.741   0.904 -16.207  0.00  0.00     0.076 A 
ATOM     14  C   UNL d   1      10.898   1.705 -16.081  0.00  0.00     0.011 A 
ATOM     15  C   UNL d   1      10.876   2.841 -15.249  0.00  0.00     0.005 A 
ATOM     16  C   UNL d   1       9.697   3.188 -14.550  0.00  0.00     0.059 A 
ATOM     17  C   UNL d   1       8.548   2.382 -14.711  0.00  0.00     0.023 A 
ATOM     18  C   UNL d   1       8.543   1.233 -15.528  0.00  0.00     0.071 A 
ENDROOT
BRANCH  16  19
ATOM     19  C   UNL d   1       9.664   4.409 -13.670  0.00  0.00     0.275 C 
ATOM     20  O   UNL d   1      10.654   5.127 -13.544  0.00  0.00    -0.266 OA
ATOM     21  N   UNL d   1       8.476   4.676 -13.097  0.00  0.00    -0.229 NA
BRANCH  21  22
ATOM     22  C   UNL d   1       8.120   5.928 -12.447  0.00  0.00     0.155 C 
BRANCH  22  23
ATOM     23  C   UNL d   1       8.826   6.124 -11.122  0.00  0.00     0.002 A 
ATOM     24  C   UNL d   1       9.649   7.252 -10.929  0.00  0.00    -0.002 A 
ATOM     25  C   UNL d   1      10.300   7.450  -9.698  0.00  0.00     0.006 A 
ATOM     26  C   UNL d   1      10.127   6.522  -8.654  0.00  0.00     0.035 A 
ATOM     27  C   UNL d   1       9.310   5.390  -8.845  0.00  0.00     0.006 A 
ATOM     28 BR   UNL d   1      11.010   6.794  -6.991  0.00  0.00    -0.049 Br
ATOM     29  C   UNL d   1       8.659   5.192 -10.078  0.00  0.00    -0.002 A 
ENDBRANCH  22  23
ENDBRANCH  21  22
ENDBRANCH  16  19
TORSDOF 3
