REMARK  7 active torsions:
REMARK  status: ('A' for Active; 'I' for Inactive)
REMARK    1  A    between atoms: C_2  and  C_5 
REMARK    2  A    between atoms: C_8  and  O_9 
REMARK    3  A    between atoms: O_9  and  C_10 
REMARK    4  A    between atoms: C_10  and  C_11 
REMARK    5  A    between atoms: C_11  and  N_12 
REMARK    6  A    between atoms: N_12  and  C_13 
REMARK    7  A    between atoms: C_13  and  C_14 
ROOT
ATOM      1  C   UNL d   1       9.543   2.712 -14.609  0.00  0.00     0.235 A 
ATOM      2  N   UNL d   1       9.987   3.676 -13.799  0.00  0.00    -0.220 NA
ATOM      3  C   UNL d   1       8.812   4.189 -13.258  0.00  0.00     0.123 A 
ATOM      4  C   UNL d   1       8.611   5.245 -12.336  0.00  0.00     0.113 A 
ATOM      5  C   UNL d   1       7.289   5.570 -11.933  0.00  0.00     0.026 A 
ATOM      6  C   UNL d   1       6.183   4.863 -12.438  0.00  0.00     0.004 A 
ATOM      7  C   UNL d   1       6.365   3.819 -13.361  0.00  0.00     0.021 A 
ATOM      8  C   UNL d   1       7.672   3.495 -13.762  0.00  0.00     0.103 A 
ATOM      9  N   UNL d   1       8.205   2.550 -14.621  0.00  0.00    -0.222 NA
ENDROOT
BRANCH   4  10
ATOM     10  O   UNL d   1       9.738   5.912 -11.903  0.00  0.00    -0.327 OA
BRANCH  10  11
ATOM     11  C   UNL d   1       9.603   6.954 -10.944  0.00  0.00     0.187 C 
BRANCH  11  12
ATOM     12  C   UNL d   1       9.463   6.349  -9.539  0.00  0.00     0.323 C 
BRANCH  12  13
ATOM     13  N   UNL d   1       9.461   7.422  -8.568  0.00  0.00     0.347 N 
BRANCH  13  14
ATOM     14  C   UNL d   1       9.466   6.889  -7.211  0.00  0.00     0.317 C 
BRANCH  14  15
ATOM     15  C   UNL d   1      10.335   7.707  -6.266  0.00  0.00     0.014 A 
ATOM     16  C   UNL d   1      11.061   7.068  -5.237  0.00  0.00    -0.002 A 
ATOM     17  C   UNL d   1      11.856   7.821  -4.352  0.00  0.00    -0.000 A 
ATOM     18  C   UNL d   1      11.939   9.218  -4.495  0.00  0.00    -0.000 A 
ATOM     19  C   UNL d   1      11.225   9.863  -5.524  0.00  0.00    -0.000 A 
ATOM     20  C   UNL d   1      10.425   9.110  -6.402  0.00  0.00    -0.002 A 
ENDBRANCH  14  15
ENDBRANCH  13  14
ENDBRANCH  12  13
ENDBRANCH  11  12
ENDBRANCH  10  11
ENDBRANCH   4  10
BRANCH   1  21
ATOM     21  C   UNL d   1      10.432   1.820 -15.429  0.00  0.00     0.453 C 
ATOM     22  F   UNL d   1      11.607   2.404 -15.669  0.00  0.00    -0.163 F 
ATOM     23  F   UNL d   1       9.856   1.548 -16.604  0.00  0.00    -0.163 F 
ATOM     24  F   UNL d   1      10.654   0.668 -14.798  0.00  0.00    -0.163 F 
ENDBRANCH   1  21
TORSDOF 7
