REMARK  4 active torsions:
REMARK  status: ('A' for Active; 'I' for Inactive)
REMARK    1  A    between atoms: C_2  and  O_3 
REMARK    2  A    between atoms: C_2  and  C_13 
REMARK    3  A    between atoms: O_3  and  C_4 
REMARK    4  A    between atoms: C_9  and  C_10 
ROOT
ATOM      1  O   UNL d   1      10.614   6.792  -7.022  0.00  0.00    -0.273 OA
ENDROOT
BRANCH   1   2
ATOM      2  C   UNL d   1      10.316   7.892  -6.290  0.00  0.00     0.302 C 
ATOM      3  O   UNL d   1       9.525   8.773  -6.644  0.00  0.00    -0.259 OA
BRANCH   2   4
ATOM      4  C   UNL d   1      11.096   7.952  -5.020  0.00  0.00     0.089 A 
ATOM      5  C   UNL d   1      11.383   9.193  -4.385  0.00  0.00     0.136 A 
ATOM      6  C   UNL d   1      12.045   9.209  -3.139  0.00  0.00     0.028 A 
ATOM      7  O   UNL d   1      11.036  10.387  -4.957  0.00  0.00    -0.190 OA
ATOM      8  C   UNL d   1      12.435   8.017  -2.510  0.00  0.00     0.002 A 
ATOM      9  C   UNL d   1      12.170   6.787  -3.135  0.00  0.00     0.000 A 
ATOM     10  C   UNL d   1      11.505   6.756  -4.379  0.00  0.00     0.007 A 
ENDBRANCH   2   4
ENDBRANCH   1   2
BRANCH   1  11
ATOM     11  C   UNL d   1      10.119   6.616  -8.291  0.00  0.00     0.109 A 
ATOM     12  C   UNL d   1      10.547   7.390  -9.407  0.00  0.00     0.087 A 
ATOM     13  C   UNL d   1       9.950   7.130 -10.668  0.00  0.00     0.008 A 
ATOM     14  C   UNL d   1       9.047   6.067 -10.843  0.00  0.00     0.000 A 
ATOM     15  C   UNL d   1       8.684   5.270  -9.752  0.00  0.00     0.002 A 
ATOM     16  C   UNL d   1       9.219   5.553  -8.490  0.00  0.00     0.025 A 
BRANCH  12  17
ATOM     17  C   UNL d   1      11.644   8.435  -9.298  0.00  0.00     0.213 C 
ATOM     18  O   UNL d   1      12.328   8.581  -8.281  0.00  0.00    -0.644 OA
ATOM     19  O   UNL d   1      11.844   9.187 -10.425  0.00  0.00    -0.644 OA
ENDBRANCH  12  17
ENDBRANCH   1  11
TORSDOF 4
