REMARK  4 active torsions:
REMARK  status: ('A' for Active; 'I' for Inactive)
REMARK    1  A    between atoms: S_2  and  C_4 
REMARK    2  A    between atoms: S_2  and  C_10 
REMARK    3  A    between atoms: C_13  and  C_14 
REMARK    4  A    between atoms: C_15  and  C_16 
ROOT
ATOM      1  C   UNL d   1       9.285   6.103 -11.039  0.00  0.00     0.107 A 
ATOM      2  C   UNL d   1       9.284   4.993 -10.188  0.00  0.00     0.015 A 
ATOM      3  C   UNL d   1       9.597   5.210  -8.852  0.00  0.00     0.020 A 
ATOM      4  C   UNL d   1      10.014   6.489  -8.450  0.00  0.00     0.082 A 
ATOM      5  N   UNL d   1      10.117   7.544  -9.296  0.00  0.00    -0.243 NA
ATOM      6  C   UNL d   1       9.714   7.354 -10.569  0.00  0.00     0.110 A 
ENDROOT
BRANCH   1   7
ATOM      7  S   UNL d   1       8.702   5.954 -12.707  0.00  0.00     0.211 S 
ATOM      8  O   UNL d   1       9.862   5.642 -13.541  0.00  0.00    -0.217 OA
ATOM      9  O   UNL d   1       7.865   7.153 -12.911  0.00  0.00    -0.217 OA
BRANCH   7  10
ATOM     10  C   UNL d   1       7.604   4.567 -12.824  0.00  0.00     0.088 A 
ATOM     11  C   UNL d   1       7.659   3.606 -13.861  0.00  0.00     0.011 A 
ATOM     12  C   UNL d   1       6.694   2.576 -13.900  0.00  0.00     0.001 A 
ATOM     13  C   UNL d   1       5.709   2.518 -12.890  0.00  0.00     0.000 A 
ATOM     14  C   UNL d   1       5.662   3.538 -11.914  0.00  0.00     0.001 A 
ATOM     15  C   UNL d   1       6.602   4.548 -11.875  0.00  0.00     0.011 A 
ENDBRANCH   7  10
ENDBRANCH   1   7
BRANCH   4  16
ATOM     16  C   UNL d   1      10.450   6.663  -7.066  0.00  0.00     0.019 C 
ATOM     17  C   UNL d   1      11.048   7.742  -6.566  0.00  0.00     0.002 C 
BRANCH  17  18
ATOM     18  C   UNL d   1      11.496   7.889  -5.176  0.00  0.00     0.000 A 
ATOM     19  C   UNL d   1      11.377   6.866  -4.195  0.00  0.00     0.002 A 
ATOM     20  C   UNL d   1      11.806   7.082  -2.867  0.00  0.00     0.030 A 
ATOM     21  C   UNL d   1      12.390   8.303  -2.528  0.00  0.00     0.140 A 
ATOM     22  C   UNL d   1      12.545   9.298  -3.511  0.00  0.00     0.030 A 
ATOM     23  F   UNL d   1      12.801   8.548  -1.263  0.00  0.00    -0.204 F 
ATOM     24  C   UNL d   1      12.117   9.092  -4.828  0.00  0.00     0.002 A 
ENDBRANCH  17  18
ENDBRANCH   4  16
TORSDOF 4
