REMARK  9 active torsions:
REMARK  status: ('A' for Active; 'I' for Inactive)
REMARK    1  A    between atoms: O_2  and  C_3 
REMARK    2  A    between atoms: C_8  and  N_9 
REMARK    3  A    between atoms: N_12  and  C_13 
REMARK    4  A    between atoms: C_13  and  C_14 
REMARK    5  A    between atoms: C_14  and  C_15 
REMARK    6  A    between atoms: C_15  and  C_16 
REMARK    7  A    between atoms: C_16  and  N_17 
REMARK       I    between atoms: N_17  and  C_18 
REMARK    8  A    between atoms: C_18  and  C_20 
REMARK    9  A    between atoms: C_21  and  C_22 
ROOT
ATOM      1  C   UNL d   1       8.592   5.263 -11.556  0.00  0.00     0.251 C 
ENDROOT
BRANCH   1   2
ATOM      2  N   UNL d   1       8.016   4.700 -12.774  0.00  0.00     0.141 N 
ATOM      3  C   UNL d   1       6.658   4.219 -12.473  0.00  0.00     0.274 C 
ATOM      4  C   UNL d   1       6.005   3.628 -13.727  0.00  0.00     0.137 C 
ATOM      5  N   UNL d   1       6.868   2.590 -14.295  0.00  0.00    -0.343 N 
ATOM      6  C   UNL d   1       8.258   2.982 -14.521  0.00  0.00     0.137 C 
ATOM      7  C   UNL d   1       8.868   3.598 -13.263  0.00  0.00     0.274 C 
BRANCH   5   8
ATOM      8  C   UNL d   1       6.373   1.335 -14.663  0.00  0.00     0.079 A 
ATOM      9  C   UNL d   1       6.766   0.684 -15.869  0.00  0.00     0.110 A 
ATOM     10  C   UNL d   1       6.222  -0.593 -16.177  0.00  0.00     0.026 A 
ATOM     11  C   UNL d   1       5.285  -1.200 -15.323  0.00  0.00     0.002 A 
ATOM     12  C   UNL d   1       4.856  -0.533 -14.175  0.00  0.00     0.002 A 
ATOM     13  C   UNL d   1       5.423   0.706 -13.820  0.00  0.00     0.019 A 
BRANCH   9  14
ATOM     14  O   UNL d   1       7.638   1.343 -16.714  0.00  0.00    -0.327 OA
ATOM     15  C   UNL d   1       8.037   0.708 -17.914  0.00  0.00     0.181 C 
ENDBRANCH   9  14
ENDBRANCH   5   8
ENDBRANCH   1   2
BRANCH   1  16
ATOM     16  C   UNL d   1       9.833   6.126 -11.869  0.00  0.00     0.037 C 
BRANCH  16  17
ATOM     17  C   UNL d   1      10.459   6.693 -10.586  0.00  0.00     0.029 C 
BRANCH  17  18
ATOM     18  C   UNL d   1       9.616   7.848 -10.029  0.00  0.00     0.129 C 
BRANCH  18  19
ATOM     19  N   UNL d   1       9.493   7.833  -8.560  0.00  0.00    -0.234 NA
ATOM     20  C   UNL d   1       9.216   6.756  -7.793  0.00  0.00     0.275 C 
ATOM     21  O   UNL d   1       8.686   5.737  -8.216  0.00  0.00    -0.266 OA
BRANCH  20  22
ATOM     22  C   UNL d   1       9.717   6.884  -6.440  0.00  0.00     0.062 C 
ATOM     23  C   UNL d   1      10.853   7.564  -6.192  0.00  0.00     0.005 C 
BRANCH  23  24
ATOM     24  C   UNL d   1      11.423   7.762  -4.886  0.00  0.00     0.000 A 
ATOM     25  C   UNL d   1      11.708   9.082  -4.489  0.00  0.00     0.002 A 
ATOM     26  C   UNL d   1      12.232   9.307  -3.216  0.00  0.00     0.030 A 
ATOM     27  C   UNL d   1      12.509   8.224  -2.376  0.00  0.00     0.140 A 
ATOM     28  C   UNL d   1      12.236   6.904  -2.761  0.00  0.00     0.030 A 
ATOM     29  F   UNL d   1      13.058   8.457  -1.178  0.00  0.00    -0.204 F 
ATOM     30  C   UNL d   1      11.682   6.671  -4.029  0.00  0.00     0.002 A 
ENDBRANCH  23  24
ENDBRANCH  20  22
ENDBRANCH  18  19
ENDBRANCH  17  18
ENDBRANCH  16  17
ENDBRANCH   1  16
TORSDOF 9
