REMARK  7 active torsions:
REMARK  status: ('A' for Active; 'I' for Inactive)
REMARK    1  A    between atoms: C_2  and  C_3 
REMARK    2  A    between atoms: C_3  and  C_5 
REMARK       I    between atoms: C_5  and  N_7 
REMARK    3  A    between atoms: N_7  and  C_8 
REMARK    4  A    between atoms: C_11  and  C_12 
REMARK    5  A    between atoms: C_12  and  C_13 
REMARK    6  A    between atoms: C_13  and  N_14 
REMARK    7  A    between atoms: N_17  and  C_18 
ROOT
ATOM      1  N   UNL d   1       8.931   6.089  -9.463  0.00  0.00     0.141 N 
ATOM      2  C   UNL d   1       9.009   5.721  -8.045  0.00  0.00     0.274 C 
ATOM      3  C   UNL d   1       8.832   6.946  -7.118  0.00  0.00     0.138 C 
ATOM      4  N   UNL d   1       9.878   7.894  -7.493  0.00  0.00    -0.330 N 
ATOM      5  C   UNL d   1       9.919   8.303  -8.902  0.00  0.00     0.138 C 
ATOM      6  C   UNL d   1      10.004   7.033  -9.793  0.00  0.00     0.274 C 
ENDROOT
BRANCH   1   7
ATOM      7  C   UNL d   1       8.962   4.888 -10.310  0.00  0.00     0.250 C 
BRANCH   7   8
ATOM      8  C   UNL d   1       8.388   5.242 -11.696  0.00  0.00     0.035 C 
BRANCH   8   9
ATOM      9  C   UNL d   1       8.137   3.993 -12.536  0.00  0.00     0.002 C 
ATOM     10  C   UNL d   1       7.185   4.236 -13.695  0.00  0.00     0.002 C 
ATOM     11  C   UNL d   1       6.931   2.943 -14.472  0.00  0.00     0.024 C 
ATOM     12  C   UNL d   1       8.234   2.346 -15.042  0.00  0.00     0.106 C 
ATOM     13  C   UNL d   1       9.213   2.075 -13.902  0.00  0.00     0.024 C 
ATOM     14  C   UNL d   1       9.457   3.338 -13.046  0.00  0.00     0.002 C 
BRANCH  12  15
ATOM     15  N   UNL d   1       7.950   1.104 -15.762  0.00  0.00    -0.240 NA
ATOM     16  C   UNL d   1       7.720   1.019 -17.081  0.00  0.00     0.251 C 
ATOM     17  O   UNL d   1       7.738   1.990 -17.838  0.00  0.00    -0.271 OA
BRANCH  16  18
ATOM     18  C   UNL d   1       7.420  -0.376 -17.638  0.00  0.00     0.081 C 
ATOM     19  C   UNL d   1       6.107  -0.351 -18.431  0.00  0.00     0.010 C 
BRANCH  18  20
ATOM     20  C   UNL d   1       8.593  -0.927 -18.477  0.00  0.00     0.009 C 
ATOM     21  C   UNL d   1       9.943  -1.012 -17.739  0.00  0.00     0.001 C 
ENDBRANCH  18  20
ENDBRANCH  16  18
ENDBRANCH  12  15
ENDBRANCH   8   9
ENDBRANCH   7   8
ENDBRANCH   1   7
BRANCH   4  22
ATOM     22  C   UNL d   1      10.793   8.431  -6.550  0.00  0.00     0.138 A 
ATOM     23  C   UNL d   1      11.151   7.797  -5.349  0.00  0.00     0.036 A 
ATOM     24  C   UNL d   1      12.069   8.368  -4.468  0.00  0.00     0.095 A 
ATOM     25  C   UNL d   1      10.813   6.457  -4.807  0.00  0.00     0.064 C 
ATOM     26  C   UNL d   1      12.650   9.588  -4.795  0.00  0.00     0.045 A 
ATOM     27  O   UNL d   1      12.395   7.639  -3.374  0.00  0.00    -0.331 OA
ATOM     28  C   UNL d   1      12.244  10.186  -5.994  0.00  0.00     0.103 A 
ATOM     29  N   UNL d   1      11.334   9.642  -6.843  0.00  0.00    -0.228 NA
ATOM     30  C   UNL d   1      11.550   6.492  -3.441  0.00  0.00     0.154 C 
ENDBRANCH   4  22
TORSDOF 7
