REMARK  1 active torsions:
REMARK  status: ('A' for Active; 'I' for Inactive)
REMARK    1  A    between atoms: C_10  and  C_11 
ROOT
ATOM      1  O   UNL d   1       5.321  -1.085 -15.274  0.00  0.00    -0.188 OA
ATOM      2  C   UNL d   1       5.761   0.088 -14.741  0.00  0.00     0.156 A 
ATOM      3  C   UNL d   1       5.036   0.721 -13.720  0.00  0.00     0.029 A 
ATOM      4  C   UNL d   1       5.468   1.947 -13.187  0.00  0.00    -0.002 A 
ATOM      5  C   UNL d   1       6.662   2.555 -13.650  0.00  0.00    -0.022 A 
ATOM      6  C   UNL d   1       7.418   1.881 -14.652  0.00  0.00     0.002 A 
ATOM      7  C   UNL d   1       6.952   0.668 -15.209  0.00  0.00     0.152 A 
ATOM      8  O   UNL d   1       7.645   0.039 -16.209  0.00  0.00    -0.188 OA
ATOM      9  C   UNL d   1       8.744   2.435 -15.151  0.00  0.00     0.033 C 
ATOM     10  C   UNL d   1       9.363   3.497 -14.247  0.00  0.00     0.027 C 
ATOM     11  C   UNL d   1       8.306   4.513 -13.794  0.00  0.00     0.013 C 
ATOM     12  C   UNL d   1       8.876   5.679 -12.969  0.00  0.00     0.039 C 
ATOM     13  C   UNL d   1       7.755   6.691 -12.702  0.00  0.00     0.290 C 
ATOM     14  N   UNL d   1       6.621   6.066 -12.040  0.00  0.00     0.339 N 
ATOM     15  C   UNL d   1       6.078   4.913 -12.738  0.00  0.00     0.294 C 
ATOM     16  C   UNL d   1       7.168   3.858 -13.000  0.00  0.00     0.059 C 
ENDROOT
BRANCH  10  17
ATOM     17  C   UNL d   1      10.535   4.159 -14.949  0.00  0.00    -0.022 A 
ATOM     18  C   UNL d   1      10.317   5.018 -16.052  0.00  0.00    -0.004 A 
ATOM     19  C   UNL d   1      11.392   5.662 -16.688  0.00  0.00    -0.000 A 
ATOM     20  C   UNL d   1      12.703   5.432 -16.235  0.00  0.00    -0.000 A 
ATOM     21  C   UNL d   1      12.916   4.564 -15.149  0.00  0.00    -0.000 A 
ATOM     22  C   UNL d   1      11.844   3.935 -14.496  0.00  0.00    -0.004 A 
ENDBRANCH  10  17
TORSDOF 1
