REMARK  8 active torsions:
REMARK  status: ('A' for Active; 'I' for Inactive)
REMARK    1  A    between atoms: N_2  and  C_3 
REMARK    2  A    between atoms: N_2  and  C_22 
REMARK    3  A    between atoms: C_3  and  C_4 
REMARK    4  A    between atoms: C_4  and  C_5 
REMARK    5  A    between atoms: C_5  and  C_6 
REMARK    6  A    between atoms: C_6  and  N_7 
REMARK       I    between atoms: N_7  and  C_8 
REMARK    7  A    between atoms: C_8  and  C_10 
REMARK    8  A    between atoms: C_13  and  C_14 
ROOT
ATOM      1  C   UNL d   1       9.744   4.588 -12.599  0.00  0.00     0.029 C 
ENDROOT
BRANCH   1   2
ATOM      2  C   UNL d   1       9.337   3.987 -13.948  0.00  0.00     0.037 C 
BRANCH   2   3
ATOM      3  C   UNL d   1      10.281   2.845 -14.417  0.00  0.00     0.250 C 
BRANCH   3   4
ATOM      4  N   UNL d   1       9.902   2.248 -15.707  0.00  0.00     0.137 N 
ATOM      5  C   UNL d   1      10.953   1.306 -16.121  0.00  0.00     0.285 C 
BRANCH   4   6
ATOM      6  C   UNL d   1       8.554   1.648 -15.712  0.00  0.00     0.224 C 
ATOM      7  C   UNL d   1       8.057   1.465 -17.164  0.00  0.00     0.062 C 
ATOM      8  C   UNL d   1       6.784   0.643 -17.225  0.00  0.00     0.014 A 
ATOM      9  C   UNL d   1       6.318  -0.138 -16.149  0.00  0.00     0.075 A 
ATOM     10  C   UNL d   1       6.048   0.576 -18.420  0.00  0.00     0.115 A 
ATOM     11  C   UNL d   1       7.017  -0.181 -14.794  0.00  0.00     0.048 C 
ATOM     12  N   UNL d   1       5.200  -0.902 -16.257  0.00  0.00    -0.062 NA
ATOM     13  C   UNL d   1       8.450   0.363 -14.856  0.00  0.00     0.040 C 
ATOM     14  C   UNL d   1       4.603  -0.875 -17.447  0.00  0.00     0.768 A 
ATOM     15  N   UNL d   1       3.463  -1.611 -17.557  0.00  0.00     0.062 N 
ATOM     16  N   UNL d   1       4.946  -0.193 -18.528  0.00  0.00    -0.057 NA
ENDBRANCH   4   6
ENDBRANCH   3   4
ENDBRANCH   2   3
ENDBRANCH   1   2
BRANCH   1  17
ATOM     17  C   UNL d   1       8.709   5.596 -12.072  0.00  0.00     0.129 C 
BRANCH  17  18
ATOM     18  N   UNL d   1       9.094   6.063 -10.746  0.00  0.00    -0.234 NA
ATOM     19  C   UNL d   1       9.664   7.250 -10.463  0.00  0.00     0.275 C 
ATOM     20  O   UNL d   1       9.867   8.127 -11.301  0.00  0.00    -0.266 OA
BRANCH  19  21
ATOM     21  C   UNL d   1      10.106   7.445  -9.040  0.00  0.00     0.058 A 
ATOM     22  C   UNL d   1      11.167   8.335  -8.758  0.00  0.00     0.005 A 
ATOM     23  C   UNL d   1      11.589   8.544  -7.431  0.00  0.00     0.000 A 
ATOM     24  C   UNL d   1      10.971   7.867  -6.359  0.00  0.00     0.000 A 
ATOM     25  C   UNL d   1       9.902   6.990  -6.645  0.00  0.00     0.000 A 
ATOM     26  C   UNL d   1       9.466   6.784  -7.969  0.00  0.00     0.005 A 
BRANCH  24  27
ATOM     27  C   UNL d   1      11.426   8.079  -4.976  0.00  0.00     0.000 A 
ATOM     28  C   UNL d   1      11.460   9.378  -4.427  0.00  0.00     0.000 A 
ATOM     29  C   UNL d   1      11.865   9.582  -3.097  0.00  0.00     0.000 A 
ATOM     30  C   UNL d   1      12.263   8.490  -2.300  0.00  0.00     0.000 A 
ATOM     31  C   UNL d   1      12.237   7.190  -2.836  0.00  0.00     0.000 A 
ATOM     32  C   UNL d   1      11.811   6.989  -4.163  0.00  0.00     0.000 A 
ENDBRANCH  24  27
ENDBRANCH  19  21
ENDBRANCH  17  18
ENDBRANCH   1  17
TORSDOF 8
