REMARK  2 active torsions:
REMARK  status: ('A' for Active; 'I' for Inactive)
REMARK    1  A    between atoms: C_2  and  C_3 
REMARK    2  A    between atoms: C_3  and  N_4 
ROOT
ATOM      1  N   UNL d   1      10.565   7.714  -8.612  0.00  0.00     0.135 N 
ATOM      2  C   UNL d   1       9.194   8.027  -8.309  0.00  0.00     0.250 C 
ATOM      3  C   UNL d   1       9.213   9.137  -7.331  0.00  0.00     0.038 C 
ATOM      4  C   UNL d   1      10.685   9.310  -6.959  0.00  0.00     0.038 C 
ATOM      5  C   UNL d   1      10.885   9.767  -5.494  0.00  0.00     0.030 C 
ATOM      6  C   UNL d   1      11.455   8.720  -4.539  0.00  0.00    -0.001 A 
ATOM      7  C   UNL d   1      11.932   9.099  -3.255  0.00  0.00     0.127 A 
ATOM      8  O   UNL d   1      11.859  10.390  -2.844  0.00  0.00    -0.191 OA
ATOM      9  C   UNL d   1      12.455   8.140  -2.374  0.00  0.00     0.027 A 
ATOM     10  C   UNL d   1      12.536   6.801  -2.762  0.00  0.00     0.002 A 
ATOM     11  C   UNL d   1      12.065   6.433  -4.034  0.00  0.00    -0.004 A 
ATOM     12  C   UNL d   1      11.514   7.370  -4.919  0.00  0.00    -0.022 A 
ATOM     13  C   UNL d   1      11.105   6.890  -6.303  0.00  0.00     0.059 C 
ATOM     14  C   UNL d   1      11.315   7.984  -7.380  0.00  0.00     0.224 C 
ENDROOT
BRANCH   1  15
ATOM     15  C   UNL d   1      10.736   6.416  -9.265  0.00  0.00     0.250 C 
BRANCH  15  16
ATOM     16  C   UNL d   1       9.582   5.870 -10.120  0.00  0.00     0.035 C 
ATOM     17  C   UNL d   1       8.588   4.983  -9.328  0.00  0.00     0.002 C 
ENDBRANCH  15  16
ENDBRANCH   1  15
TORSDOF 2
