REMARK  4 active torsions:
REMARK  status: ('A' for Active; 'I' for Inactive)
REMARK    1  A    between atoms: C_4  and  C_5 
REMARK    2  A    between atoms: C_5  and  N_6 
REMARK    3  A    between atoms: N_6  and  C_7 
REMARK    4  A    between atoms: C_7  and  C_8 
ROOT
ATOM      1  C   UNL d   1      10.770   6.641  -8.510  0.00  0.00     0.158 C 
ATOM      2  C   UNL d   1      11.317   7.831  -9.334  0.00  0.00     0.037 C 
ATOM      3  C   UNL d   1      10.937   9.100  -8.602  0.00  0.00     0.031 C 
ATOM      4  C   UNL d   1      11.118   8.966  -7.091  0.00  0.00     0.000 A 
ATOM      5  C   UNL d   1      11.067  10.174  -6.375  0.00  0.00    -0.001 A 
ATOM      6  C   UNL d   1      11.198  10.180  -4.990  0.00  0.00     0.019 A 
ATOM      7  C   UNL d   1      11.464   9.000  -4.348  0.00  0.00     0.083 A 
ATOM      8  N   UNL d   1      11.729   8.791  -3.012  0.00  0.00    -0.244 NA
ATOM      9  C   UNL d   1      11.888   7.460  -2.787  0.00  0.00     0.099 A 
ATOM     10  C   UNL d   1      11.790   6.778  -3.971  0.00  0.00     0.024 A 
ATOM     11  C   UNL d   1      11.509   7.739  -4.994  0.00  0.00     0.041 A 
ATOM     12  C   UNL d   1      11.300   7.740  -6.423  0.00  0.00     0.091 A 
ATOM     13  O   UNL d   1      11.328   6.569  -7.164  0.00  0.00    -0.331 OA
ENDROOT
BRANCH   1  14
ATOM     14  C   UNL d   1       9.224   6.634  -8.458  0.00  0.00     0.320 C 
BRANCH  14  15
ATOM     15  N   UNL d   1       8.679   6.386  -9.781  0.00  0.00     0.346 N 
BRANCH  15  16
ATOM     16  C   UNL d   1       8.393   4.973  -9.935  0.00  0.00     0.317 C 
BRANCH  16  17
ATOM     17  C   UNL d   1       8.233   4.579 -11.387  0.00  0.00     0.014 A 
ATOM     18  C   UNL d   1       6.990   4.711 -12.029  0.00  0.00    -0.002 A 
ATOM     19  C   UNL d   1       6.850   4.278 -13.361  0.00  0.00    -0.000 A 
ATOM     20  C   UNL d   1       7.958   3.724 -14.033  0.00  0.00    -0.000 A 
ATOM     21  C   UNL d   1       9.202   3.602 -13.400  0.00  0.00    -0.000 A 
ATOM     22  C   UNL d   1       9.331   4.028 -12.069  0.00  0.00    -0.002 A 
ENDBRANCH  16  17
ENDBRANCH  15  16
ENDBRANCH  14  15
ENDBRANCH   1  14
TORSDOF 4
