REMARK  7 active torsions:
REMARK  status: ('A' for Active; 'I' for Inactive)
REMARK    1  A    between atoms: C_2  and  C_3 
REMARK    2  A    between atoms: C_3  and  C_4 
REMARK       I    between atoms: C_4  and  N_6 
REMARK    3  A    between atoms: N_6  and  C_7 
REMARK    4  A    between atoms: C_10  and  C_11 
REMARK    5  A    between atoms: C_11  and  C_12 
REMARK    6  A    between atoms: C_12  and  N_13 
REMARK    7  A    between atoms: N_16  and  C_17 
ROOT
ATOM      1  N   UNL d   1       8.782   5.191 -12.259  0.00  0.00     0.141 N 
ATOM      2  C   UNL d   1       7.479   4.712 -11.754  0.00  0.00     0.274 C 
ATOM      3  C   UNL d   1       6.577   4.296 -12.932  0.00  0.00     0.138 C 
ATOM      4  N   UNL d   1       7.261   3.334 -13.787  0.00  0.00    -0.330 N 
ATOM      5  C   UNL d   1       8.621   3.672 -14.188  0.00  0.00     0.138 C 
ATOM      6  C   UNL d   1       9.443   4.096 -12.973  0.00  0.00     0.274 C 
ENDROOT
BRANCH   1   7
ATOM      7  C   UNL d   1       9.685   5.571 -11.176  0.00  0.00     0.250 C 
BRANCH   7   8
ATOM      8  C   UNL d   1       9.172   6.761 -10.390  0.00  0.00     0.035 C 
BRANCH   8   9
ATOM      9  C   UNL d   1      10.109   7.237  -9.283  0.00  0.00     0.002 C 
ATOM     10  C   UNL d   1       9.598   8.577  -8.739  0.00  0.00     0.002 C 
ATOM     11  C   UNL d   1      10.480   9.080  -7.611  0.00  0.00     0.024 C 
ATOM     12  C   UNL d   1      10.569   8.064  -6.464  0.00  0.00     0.106 C 
ATOM     13  C   UNL d   1      11.060   6.715  -6.995  0.00  0.00     0.024 C 
ATOM     14  C   UNL d   1      10.191   6.195  -8.143  0.00  0.00     0.002 C 
BRANCH  12  15
ATOM     15  N   UNL d   1      11.457   8.530  -5.425  0.00  0.00    -0.240 NA
ATOM     16  C   UNL d   1      11.252   9.546  -4.590  0.00  0.00     0.251 C 
ATOM     17  O   UNL d   1      10.352  10.377  -4.740  0.00  0.00    -0.271 OA
BRANCH  16  18
ATOM     18  C   UNL d   1      12.169   9.606  -3.372  0.00  0.00     0.090 C 
BRANCH  18  19
ATOM     19  C   UNL d   1      12.094   8.340  -2.478  0.00  0.00     0.010 C 
ATOM     20  C   UNL d   1      12.642   7.029  -3.081  0.00  0.00     0.001 C 
ENDBRANCH  18  19
ENDBRANCH  16  18
ENDBRANCH  12  15
ENDBRANCH   8   9
ENDBRANCH   7   8
ENDBRANCH   1   7
BRANCH   4  21
ATOM     21  C   UNL d   1       6.665   2.098 -14.150  0.00  0.00     0.138 A 
ATOM     22  C   UNL d   1       6.951   1.437 -15.365  0.00  0.00     0.036 A 
ATOM     23  C   UNL d   1       6.302   0.258 -15.680  0.00  0.00     0.095 A 
ATOM     24  C   UNL d   1       7.814   1.840 -16.527  0.00  0.00     0.064 C 
ATOM     25  C   UNL d   1       5.381  -0.313 -14.787  0.00  0.00     0.045 A 
ATOM     26  O   UNL d   1       6.617  -0.222 -16.927  0.00  0.00    -0.331 OA
ATOM     27  C   UNL d   1       5.158   0.393 -13.586  0.00  0.00     0.103 A 
ATOM     28  N   UNL d   1       5.769   1.567 -13.279  0.00  0.00    -0.228 NA
ATOM     29  C   UNL d   1       7.661   0.618 -17.450  0.00  0.00     0.154 C 
ENDBRANCH   4  21
TORSDOF 7
