REMARK  7 active torsions:
REMARK  status: ('A' for Active; 'I' for Inactive)
REMARK    1  A    between atoms: C_1  and  C_9 
REMARK    2  A    between atoms: C_2  and  C_3 
REMARK    3  A    between atoms: C_9  and  O_10 
REMARK    4  A    between atoms: O_10  and  C_11 
REMARK    5  A    between atoms: C_11  and  C_12 
REMARK    6  A    between atoms: N_15  and  C_16 
REMARK    7  A    between atoms: C_16  and  C_17 
ROOT
ATOM      1  C   UNL d   1       8.032   4.096 -13.177  0.00  0.00     0.143 C 
ENDROOT
BRANCH   1   2
ATOM      2  O   UNL d   1       9.317   3.491 -13.307  0.00  0.00    -0.349 OA
BRANCH   2   3
ATOM      3  C   UNL d   1       9.495   2.705 -14.470  0.00  0.00     0.169 C 
BRANCH   3   4
ATOM      4  C   UNL d   1       8.468   1.598 -14.569  0.00  0.00     0.006 C 
ATOM      5  C   UNL d   1       7.645   1.444 -15.619  0.00  0.00    -0.002 C 
BRANCH   5   6
ATOM      6  C   UNL d   1       6.590   0.435 -15.762  0.00  0.00    -0.000 A 
ATOM      7  C   UNL d   1       6.001   0.252 -17.033  0.00  0.00    -0.000 A 
ATOM      8  C   UNL d   1       5.015  -0.732 -17.231  0.00  0.00    -0.000 A 
ATOM      9  C   UNL d   1       4.607  -1.545 -16.157  0.00  0.00    -0.000 A 
ATOM     10  C   UNL d   1       5.188  -1.367 -14.887  0.00  0.00    -0.000 A 
ATOM     11  C   UNL d   1       6.178  -0.388 -14.690  0.00  0.00    -0.000 A 
ENDBRANCH   5   6
ENDBRANCH   3   4
ENDBRANCH   2   3
ENDBRANCH   1   2
BRANCH   1  12
ATOM     12  C   UNL d   1       8.139   5.236 -12.161  0.00  0.00     0.034 C 
ATOM     13  C   UNL d   1       8.693   4.769 -10.812  0.00  0.00     0.038 C 
ATOM     14  C   UNL d   1       8.915   5.939  -9.858  0.00  0.00     0.250 C 
ATOM     15  N   UNL d   1       9.831   6.919 -10.454  0.00  0.00     0.137 N 
ATOM     16  C   UNL d   1       9.233   7.465 -11.678  0.00  0.00     0.250 C 
ATOM     17  C   UNL d   1       9.007   6.362 -12.714  0.00  0.00     0.038 C 
BRANCH  15  18
ATOM     18  C   UNL d   1      10.065   8.011  -9.514  0.00  0.00     0.250 C 
BRANCH  18  19
ATOM     19  C   UNL d   1      11.034   7.612  -8.414  0.00  0.00     0.033 A 
ATOM     20  C   UNL d   1      12.449   8.136  -8.407  0.00  0.00     0.002 A 
ATOM     21  C   UNL d   1      11.463   8.638  -7.390  0.00  0.00     0.002 A 
ENDBRANCH  18  19
ENDBRANCH  15  18
ENDBRANCH   1  12
TORSDOF 7
