REMARK  7 active torsions:
REMARK  status: ('A' for Active; 'I' for Inactive)
REMARK    1  A    between atoms: O_2  and  C_3 
REMARK    2  A    between atoms: C_7  and  C_8 
REMARK       I    between atoms: C_8  and  N_10 
REMARK    3  A    between atoms: N_10  and  C_11 
REMARK    4  A    between atoms: C_11  and  C_12 
REMARK    5  A    between atoms: C_13  and  C_14 
REMARK    6  A    between atoms: C_14  and  N_15 
REMARK    7  A    between atoms: N_18  and  C_19 
ROOT
ATOM      1  C   UNL d   1       9.611   5.373 -13.116  0.00  0.00     0.276 C 
ENDROOT
BRANCH   1   2
ATOM      2  C   UNL d   1       9.292   5.156 -11.644  0.00  0.00     0.006 C 
ATOM      3  C   UNL d   1       9.762   5.914 -10.645  0.00  0.00    -0.003 C 
BRANCH   3   4
ATOM      4  C   UNL d   1       9.436   5.659  -9.195  0.00  0.00     0.155 C 
BRANCH   4   5
ATOM      5  N   UNL d   1      10.111   6.627  -8.347  0.00  0.00    -0.229 NA
ATOM      6  C   UNL d   1       9.729   6.906  -7.098  0.00  0.00     0.275 C 
ATOM      7  O   UNL d   1       8.710   6.453  -6.588  0.00  0.00    -0.266 OA
BRANCH   6   8
ATOM      8  C   UNL d   1      10.675   7.752  -6.306  0.00  0.00     0.059 A 
ATOM      9  C   UNL d   1      11.168   8.970  -6.825  0.00  0.00     0.005 A 
ATOM     10  C   UNL d   1      12.027   9.764  -6.046  0.00  0.00     0.002 A 
ATOM     11  C   UNL d   1      12.400   9.352  -4.751  0.00  0.00     0.024 A 
ATOM     12  C   UNL d   1      11.899   8.146  -4.210  0.00  0.00     0.094 A 
ATOM     13  C   UNL d   1      11.062   7.345  -5.012  0.00  0.00     0.029 A 
BRANCH  12  14
ATOM     14  O   UNL d   1      12.205   7.681  -2.950  0.00  0.00    -0.328 OA
ATOM     15  C   UNL d   1      12.625   8.630  -1.978  0.00  0.00     0.181 C 
ENDBRANCH  12  14
ENDBRANCH   6   8
ENDBRANCH   4   5
ENDBRANCH   3   4
ENDBRANCH   1   2
BRANCH   1  16
ATOM     16  N   UNL d   1      10.299   4.245 -13.755  0.00  0.00     0.145 N 
ATOM     17  C   UNL d   1      10.446   4.506 -15.194  0.00  0.00     0.275 C 
ATOM     18  C   UNL d   1      11.201   3.349 -15.895  0.00  0.00     0.137 C 
ATOM     19  N   UNL d   1      10.529   2.086 -15.626  0.00  0.00    -0.344 N 
ATOM     20  C   UNL d   1      10.258   1.809 -14.230  0.00  0.00     0.137 C 
ATOM     21  C   UNL d   1       9.539   3.002 -13.578  0.00  0.00     0.275 C 
BRANCH  19  22
ATOM     22  C   UNL d   1      10.097   1.224 -16.650  0.00  0.00     0.068 A 
ATOM     23  C   UNL d   1       8.734   0.855 -16.816  0.00  0.00     0.084 A 
ATOM     24  C   UNL d   1       8.368  -0.032 -17.851  0.00  0.00     0.070 A 
ATOM     25 CL   UNL d   1       7.480   1.506 -15.810  0.00  0.00    -0.080 Cl
ATOM     26  C   UNL d   1       9.343  -0.547 -18.721  0.00  0.00     0.012 A 
ATOM     27 CL   UNL d   1       6.718  -0.476 -18.089  0.00  0.00    -0.081 Cl
ATOM     28  C   UNL d   1      10.690  -0.179 -18.566  0.00  0.00     0.002 A 
ATOM     29  C   UNL d   1      11.065   0.705 -17.537  0.00  0.00     0.018 A 
ENDBRANCH  19  22
ENDBRANCH   1  16
TORSDOF 7
