REMARK  16 active torsions:
REMARK  status: ('A' for Active; 'I' for Inactive)
REMARK    1  A    between atoms: C_1  and  C_28 
REMARK    2  A    between atoms: C_2  and  C_3 
REMARK    3  A    between atoms: C_3  and  N_4 
REMARK    4  A    between atoms: C_5  and  C_6 
REMARK    5  A    between atoms: C_9  and  O_10 
REMARK    6  A    between atoms: O_10  and  C_11 
REMARK    7  A    between atoms: C_11  and  C_12 
REMARK    8  A    between atoms: C_12  and  C_13 
REMARK    9  A    between atoms: C_13  and  N_14 
REMARK   10  A    between atoms: C_28  and  N_29 
REMARK   11  A    between atoms: C_30  and  C_31 
REMARK   12  A    between atoms: C_34  and  O_35 
REMARK   13  A    between atoms: O_35  and  C_36 
REMARK   14  A    between atoms: C_36  and  C_37 
REMARK   15  A    between atoms: C_37  and  C_38 
REMARK   16  A    between atoms: C_38  and  N_39 
ROOT
ATOM      1  C   UNL d   1      11.684   5.186 -15.039  0.00  0.00    -0.004 C 
ATOM      2  C   UNL d   1      12.744   5.458 -15.822  0.00  0.00    -0.004 C 
ENDROOT
BRANCH   1   3
ATOM      3  C   UNL d   1      11.395   3.837 -14.396  0.00  0.00     0.134 C 
BRANCH   3   4
ATOM      4  N   UNL d   1       9.985   3.453 -14.441  0.00  0.00    -0.308 N 
ATOM      5  C   UNL d   1       8.976   4.015 -13.661  0.00  0.00     0.079 A 
ATOM      6  C   UNL d   1       7.798   3.317 -14.036  0.00  0.00     0.099 A 
ATOM      7  C   UNL d   1       8.951   5.029 -12.688  0.00  0.00     0.019 A 
ATOM      8  N   UNL d   1       8.069   2.368 -14.995  0.00  0.00    -0.227 NA
ATOM      9  C   UNL d   1       6.579   3.657 -13.404  0.00  0.00     0.021 A 
ATOM     10  C   UNL d   1       9.383   2.498 -15.201  0.00  0.00     0.144 A 
ATOM     11  C   UNL d   1       6.547   4.672 -12.428  0.00  0.00     0.002 A 
ATOM     12  C   UNL d   1       7.725   5.357 -12.069  0.00  0.00     0.002 A 
BRANCH  10  13
ATOM     13  C   UNL d   1      10.044   1.660 -16.197  0.00  0.00     0.034 A 
ATOM     14  C   UNL d   1      10.924   2.246 -17.138  0.00  0.00     0.005 A 
ATOM     15  C   UNL d   1      11.546   1.460 -18.129  0.00  0.00     0.024 A 
ATOM     16  C   UNL d   1      11.298   0.069 -18.170  0.00  0.00     0.094 A 
ATOM     17  C   UNL d   1      10.408  -0.506 -17.241  0.00  0.00     0.024 A 
ATOM     18  C   UNL d   1       9.776   0.277 -16.259  0.00  0.00     0.005 A 
BRANCH  16  19
ATOM     19  O   UNL d   1      11.912  -0.773 -19.066  0.00  0.00    -0.331 OA
BRANCH  19  20
ATOM     20  C   UNL d   1      12.579  -0.206 -20.177  0.00  0.00     0.151 C 
BRANCH  20  21
ATOM     21  C   UNL d   1      13.958   0.361 -19.785  0.00  0.00     0.068 C 
BRANCH  21  22
ATOM     22  C   UNL d   1      14.607   1.105 -20.963  0.00  0.00     0.253 C 
BRANCH  22  23
ATOM     23  N   UNL d   1      15.864   1.716 -20.546  0.00  0.00     0.137 N 
ATOM     24  C   UNL d   1      16.203   2.883 -21.347  0.00  0.00     0.250 C 
ATOM     25  C   UNL d   1      16.751   2.303 -22.650  0.00  0.00     0.037 C 
ATOM     26  C   UNL d   1      17.272   0.922 -22.262  0.00  0.00     0.037 C 
ATOM     27  C   UNL d   1      16.981   0.809 -20.762  0.00  0.00     0.250 C 
ENDBRANCH  22  23
ENDBRANCH  21  22
ENDBRANCH  20  21
ENDBRANCH  19  20
ENDBRANCH  16  19
ENDBRANCH  10  13
ENDBRANCH   3   4
ENDBRANCH   1   3
BRANCH   2  28
ATOM     28  C   UNL d   1      13.013   6.813 -16.451  0.00  0.00     0.134 C 
BRANCH  28  29
ATOM     29  N   UNL d   1      13.669   6.690 -17.749  0.00  0.00    -0.308 N 
ATOM     30  C   UNL d   1      15.036   6.508 -17.934  0.00  0.00     0.079 A 
ATOM     31  C   UNL d   1      15.217   6.478 -19.343  0.00  0.00     0.099 A 
ATOM     32  C   UNL d   1      16.118   6.369 -17.051  0.00  0.00     0.019 A 
ATOM     33  N   UNL d   1      14.011   6.613 -19.995  0.00  0.00    -0.227 NA
ATOM     34  C   UNL d   1      16.531   6.317 -19.846  0.00  0.00     0.021 A 
ATOM     35  C   UNL d   1      13.125   6.721 -18.995  0.00  0.00     0.144 A 
ATOM     36  C   UNL d   1      17.625   6.202 -18.963  0.00  0.00     0.002 A 
ATOM     37  C   UNL d   1      17.420   6.224 -17.567  0.00  0.00     0.002 A 
BRANCH  35  38
ATOM     38  C   UNL d   1      11.700   6.866 -19.282  0.00  0.00     0.034 A 
ATOM     39  C   UNL d   1      10.726   6.200 -18.505  0.00  0.00     0.005 A 
ATOM     40  C   UNL d   1       9.358   6.382 -18.756  0.00  0.00     0.024 A 
ATOM     41  C   UNL d   1       8.930   7.186 -19.826  0.00  0.00     0.094 A 
ATOM     42  C   UNL d   1       9.905   7.849 -20.616  0.00  0.00     0.024 A 
ATOM     43  C   UNL d   1      11.278   7.681 -20.356  0.00  0.00     0.005 A 
BRANCH  41  44
ATOM     44  O   UNL d   1       7.571   7.313 -20.015  0.00  0.00    -0.331 OA
BRANCH  44  45
ATOM     45  C   UNL d   1       7.094   7.781 -21.272  0.00  0.00     0.151 C 
BRANCH  45  46
ATOM     46  C   UNL d   1       7.493   6.820 -22.416  0.00  0.00     0.068 C 
BRANCH  46  47
ATOM     47  C   UNL d   1       7.063   5.366 -22.129  0.00  0.00     0.253 C 
BRANCH  47  48
ATOM     48  N   UNL d   1       7.936   4.396 -22.787  0.00  0.00     0.137 N 
ATOM     49  C   UNL d   1       7.453   3.034 -22.593  0.00  0.00     0.250 C 
ATOM     50  C   UNL d   1       8.653   2.170 -22.982  0.00  0.00     0.037 C 
ATOM     51  C   UNL d   1       9.865   3.059 -22.718  0.00  0.00     0.037 C 
ATOM     52  C   UNL d   1       9.273   4.361 -22.197  0.00  0.00     0.250 C 
ENDBRANCH  47  48
ENDBRANCH  46  47
ENDBRANCH  45  46
ENDBRANCH  44  45
ENDBRANCH  41  44
ENDBRANCH  35  38
ENDBRANCH  28  29
ENDBRANCH   2  28
TORSDOF 16
