REMARK  6 active torsions:
REMARK  status: ('A' for Active; 'I' for Inactive)
REMARK    1  A    between atoms: C_4  and  C_5 
REMARK    2  A    between atoms: C_5  and  N_6 
REMARK    3  A    between atoms: N_6  and  C_7 
REMARK    4  A    between atoms: C_7  and  C_8 
REMARK    5  A    between atoms: C_8  and  O_9 
REMARK    6  A    between atoms: O_9  and  C_10 
ROOT
ATOM      1  C   UNL d   1       9.710   6.245  -7.681  0.00  0.00     0.187 C 
ENDROOT
BRANCH   1   2
ATOM      2  C   UNL d   1       9.871   6.544  -9.177  0.00  0.00     0.323 C 
BRANCH   2   3
ATOM      3  N   UNL d   1       9.077   5.602  -9.953  0.00  0.00     0.347 N 
BRANCH   3   4
ATOM      4  C   UNL d   1       8.990   6.068 -11.323  0.00  0.00     0.317 C 
BRANCH   4   5
ATOM      5  C   UNL d   1       8.136   5.162 -12.184  0.00  0.00     0.014 A 
ATOM      6  C   UNL d   1       6.734   5.175 -12.040  0.00  0.00    -0.002 A 
ATOM      7  C   UNL d   1       5.935   4.331 -12.835  0.00  0.00    -0.000 A 
ATOM      8  C   UNL d   1       6.538   3.471 -13.774  0.00  0.00    -0.000 A 
ATOM      9  C   UNL d   1       7.938   3.460 -13.925  0.00  0.00    -0.000 A 
ATOM     10  C   UNL d   1       8.737   4.302 -13.127  0.00  0.00    -0.002 A 
ENDBRANCH   4   5
ENDBRANCH   3   4
ENDBRANCH   2   3
ENDBRANCH   1   2
BRANCH   1  11
ATOM     11  O   UNL d   1      10.933   6.458  -6.989  0.00  0.00    -0.327 OA
BRANCH  11  12
ATOM     12  C   UNL d   1      11.039   7.613  -6.257  0.00  0.00     0.113 A 
ATOM     13  C   UNL d   1      11.468   7.500  -4.913  0.00  0.00     0.123 A 
ATOM     14  C   UNL d   1      11.599   8.686  -4.140  0.00  0.00     0.103 A 
ATOM     15  N   UNL d   1      11.814   6.391  -4.160  0.00  0.00    -0.221 NA
ATOM     16  C   UNL d   1      11.320   9.942  -4.680  0.00  0.00     0.021 A 
ATOM     17  N   UNL d   1      12.022   8.262  -2.894  0.00  0.00    -0.223 NA
ATOM     18  C   UNL d   1      10.936  10.044  -6.028  0.00  0.00     0.004 A 
ATOM     19  C   UNL d   1      10.776   8.888  -6.816  0.00  0.00     0.026 A 
ATOM     20  C   UNL d   1      12.116   6.927  -2.983  0.00  0.00     0.199 A 
ENDBRANCH  11  12
ENDBRANCH   1  11
TORSDOF 6
