REMARK  9 active torsions:
REMARK  status: ('A' for Active; 'I' for Inactive)
REMARK    1  A    between atoms: C_2  and  O_4 
REMARK    2  A    between atoms: O_4  and  C_5 
REMARK    3  A    between atoms: C_10  and  N_11 
REMARK    4  A    between atoms: N_14  and  C_15 
REMARK    5  A    between atoms: C_15  and  C_16 
REMARK    6  A    between atoms: C_16  and  C_17 
REMARK    7  A    between atoms: C_17  and  C_18 
REMARK    8  A    between atoms: C_18  and  O_19 
REMARK    9  A    between atoms: O_19  and  C_20 
ROOT
ATOM      1  N   UNL d   1       8.611   3.854 -14.242  0.00  0.00    -0.343 N 
ATOM      2  C   UNL d   1       8.007   5.082 -14.629  0.00  0.00     0.137 C 
ATOM      3  C   UNL d   1       8.227   6.140 -13.603  0.00  0.00     0.274 C 
ATOM      4  N   UNL d   1       7.700   5.668 -12.338  0.00  0.00     0.141 N 
ATOM      5  C   UNL d   1       8.404   4.468 -11.918  0.00  0.00     0.274 C 
ATOM      6  C   UNL d   1       8.180   3.398 -12.962  0.00  0.00     0.137 C 
ENDROOT
BRANCH   4   7
ATOM      7  C   UNL d   1       7.962   6.721 -11.396  0.00  0.00     0.251 C 
BRANCH   7   8
ATOM      8  C   UNL d   1       9.421   7.168 -11.194  0.00  0.00     0.038 C 
BRANCH   8   9
ATOM      9  C   UNL d   1       9.555   8.234 -10.110  0.00  0.00     0.035 C 
BRANCH   9  10
ATOM     10  C   UNL d   1      11.060   8.542  -9.897  0.00  0.00     0.149 C 
BRANCH  10  11
ATOM     11  O   UNL d   1      11.321   9.282  -8.722  0.00  0.00    -0.331 OA
BRANCH  11  12
ATOM     12  C   UNL d   1      11.287   8.631  -7.505  0.00  0.00     0.096 A 
ATOM     13  C   UNL d   1      11.940   9.217  -6.421  0.00  0.00     0.043 A 
ATOM     14  C   UNL d   1      11.922   8.588  -5.140  0.00  0.00     0.082 A 
ATOM     15  C   UNL d   1      11.252   7.341  -5.007  0.00  0.00    -0.004 A 
ATOM     16  N   UNL d   1      12.684   9.065  -4.053  0.00  0.00    -0.212 NA
ATOM     17  C   UNL d   1      10.593   6.794  -6.088  0.00  0.00    -0.001 A 
ATOM     18  C   UNL d   1      11.376   6.562  -3.716  0.00  0.00     0.038 C 
ATOM     19  C   UNL d   1      10.629   7.380  -7.330  0.00  0.00     0.024 A 
ATOM     20  C   UNL d   1      11.556   7.492  -2.535  0.00  0.00     0.095 C 
ATOM     21  C   UNL d   1      12.604   8.525  -2.830  0.00  0.00     0.256 C 
ATOM     22  O   UNL d   1      13.326   8.781  -1.867  0.00  0.00    -0.270 OA
ENDBRANCH  11  12
ENDBRANCH  10  11
ENDBRANCH   9  10
ENDBRANCH   8   9
ENDBRANCH   7   8
ENDBRANCH   4   7
BRANCH   1  23
ATOM     23  C   UNL d   1       9.401   3.046 -15.091  0.00  0.00     0.079 A 
ATOM     24  C   UNL d   1       9.232   1.644 -15.131  0.00  0.00     0.109 A 
ATOM     25  C   UNL d   1      10.137   0.890 -15.944  0.00  0.00     0.026 A 
ATOM     26  C   UNL d   1      11.146   1.538 -16.670  0.00  0.00     0.002 A 
ATOM     27  C   UNL d   1      11.281   2.932 -16.620  0.00  0.00     0.002 A 
ATOM     28  C   UNL d   1      10.399   3.688 -15.829  0.00  0.00     0.019 A 
BRANCH  24  29
ATOM     29  O   UNL d   1       8.208   1.094 -14.377  0.00  0.00    -0.332 OA
BRANCH  29  30
ATOM     30  C   UNL d   1       7.716  -0.193 -14.668  0.00  0.00     0.122 C 
ATOM     31  C   UNL d   1       6.854  -0.134 -15.936  0.00  0.00     0.033 C 
ATOM     32  C   UNL d   1       6.881  -0.759 -13.490  0.00  0.00     0.033 C 
ENDBRANCH  29  30
ENDBRANCH  24  29
ENDBRANCH   1  23
TORSDOF 9
