REMARK  8 active torsions:
REMARK  status: ('A' for Active; 'I' for Inactive)
REMARK    1  A    between atoms: O_2  and  C_3 
REMARK    2  A    between atoms: C_8  and  N_9 
REMARK    3  A    between atoms: N_12  and  C_13 
REMARK    4  A    between atoms: C_13  and  C_14 
REMARK    5  A    between atoms: C_14  and  C_15 
REMARK    6  A    between atoms: C_15  and  C_16 
REMARK    7  A    between atoms: C_16  and  N_17 
REMARK       I    between atoms: N_17  and  C_18 
REMARK    8  A    between atoms: C_18  and  C_20 
ROOT
ATOM      1  C   UNL d   1      10.190   7.242  -8.870  0.00  0.00     0.139 A 
ATOM      2  C   UNL d   1      10.476   6.428  -7.803  0.00  0.00     0.025 A 
ATOM      3  C   UNL d   1      10.847   7.281  -6.710  0.00  0.00     0.020 A 
ATOM      4  C   UNL d   1      11.245   7.062  -5.368  0.00  0.00     0.012 A 
ATOM      5  C   UNL d   1      11.556   8.142  -4.512  0.00  0.00     0.068 A 
ATOM      6  C   UNL d   1      11.951   7.886  -3.136  0.00  0.00     0.101 C 
ATOM      7  N   UNL d   1      12.257   7.685  -2.040  0.00  0.00    -0.191 NA
ATOM      8  C   UNL d   1      11.474   9.467  -4.986  0.00  0.00     0.012 A 
ATOM      9  C   UNL d   1      11.102   9.714  -6.322  0.00  0.00     0.020 A 
ATOM     10  C   UNL d   1      10.787   8.631  -7.163  0.00  0.00     0.082 A 
ATOM     11  N   UNL d   1      10.393   8.556  -8.486  0.00  0.00    -0.241 NA
ENDROOT
BRANCH   1  12
ATOM     12  C   UNL d   1       9.824   6.963 -10.271  0.00  0.00     0.293 C 
ATOM     13  N   UNL d   1       9.492   5.691 -10.534  0.00  0.00    -0.233 NA
ATOM     14  O   UNL d   1       9.857   7.850 -11.124  0.00  0.00    -0.264 OA
BRANCH  13  15
ATOM     15  C   UNL d   1       9.470   5.098 -11.865  0.00  0.00     0.129 C 
BRANCH  15  16
ATOM     16  C   UNL d   1       8.053   5.022 -12.430  0.00  0.00     0.029 C 
BRANCH  16  17
ATOM     17  C   UNL d   1       8.002   4.465 -13.863  0.00  0.00     0.037 C 
BRANCH  17  18
ATOM     18  C   UNL d   1       8.401   2.980 -13.959  0.00  0.00     0.251 C 
BRANCH  18  19
ATOM     19  N   UNL d   1       8.263   2.425 -15.305  0.00  0.00     0.141 N 
ATOM     20  C   UNL d   1       9.009   1.165 -15.411  0.00  0.00     0.274 C 
ATOM     21  C   UNL d   1       8.903   0.594 -16.847  0.00  0.00     0.137 C 
ATOM     22  N   UNL d   1       7.506   0.456 -17.240  0.00  0.00    -0.343 N 
ATOM     23  C   UNL d   1       6.694   1.640 -17.033  0.00  0.00     0.137 C 
ATOM     24  C   UNL d   1       6.848   2.134 -15.578  0.00  0.00     0.274 C 
BRANCH  22  25
ATOM     25  C   UNL d   1       6.952  -0.769 -17.657  0.00  0.00     0.079 A 
ATOM     26  C   UNL d   1       5.731  -1.264 -17.117  0.00  0.00     0.110 A 
ATOM     27  C   UNL d   1       5.206  -2.487 -17.612  0.00  0.00     0.026 A 
ATOM     28  C   UNL d   1       5.886  -3.214 -18.605  0.00  0.00     0.002 A 
ATOM     29  C   UNL d   1       7.100  -2.731 -19.121  0.00  0.00     0.002 A 
ATOM     30  C   UNL d   1       7.626  -1.513 -18.648  0.00  0.00     0.019 A 
BRANCH  26  31
ATOM     31  O   UNL d   1       5.124  -0.546 -16.104  0.00  0.00    -0.327 OA
ATOM     32  C   UNL d   1       3.866  -0.984 -15.618  0.00  0.00     0.181 C 
ENDBRANCH  26  31
ENDBRANCH  22  25
ENDBRANCH  18  19
ENDBRANCH  17  18
ENDBRANCH  16  17
ENDBRANCH  15  16
ENDBRANCH  13  15
ENDBRANCH   1  12
TORSDOF 8
