REMARK  7 active torsions:
REMARK  status: ('A' for Active; 'I' for Inactive)
REMARK    1  A    between atoms: O_2  and  C_3 
REMARK    2  A    between atoms: C_6  and  C_7 
REMARK    3  A    between atoms: N_12  and  C_13 
REMARK    4  A    between atoms: C_13  and  C_14 
REMARK    5  A    between atoms: C_14  and  C_16 
REMARK    6  A    between atoms: C_16  and  N_17 
REMARK    7  A    between atoms: N_20  and  C_21 
ROOT
ATOM      1  C   UNL d   1       9.735   3.005 -17.036  0.00  0.00     0.066 A 
ATOM      2  C   UNL d   1       9.656   4.178 -17.813  0.00  0.00     0.018 A 
ATOM      3  C   UNL d   1       9.511   4.095 -19.213  0.00  0.00     0.002 A 
ATOM      4  C   UNL d   1       9.459   2.840 -19.842  0.00  0.00     0.001 A 
ATOM      5  C   UNL d   1       9.544   1.666 -19.073  0.00  0.00     0.012 A 
ATOM      6  C   UNL d   1       9.677   1.742 -17.670  0.00  0.00     0.084 A 
ATOM      7  C   UNL d   1       9.808   0.499 -16.925  0.00  0.00     0.102 C 
ATOM      8  N   UNL d   1       9.915  -0.484 -16.330  0.00  0.00    -0.191 NA
ENDROOT
BRANCH   1   9
ATOM      9  N   UNL d   1       9.880   3.133 -15.643  0.00  0.00    -0.344 N 
ATOM     10  C   UNL d   1      11.091   3.684 -15.066  0.00  0.00     0.137 C 
ATOM     11  C   UNL d   1      10.696   4.763 -14.059  0.00  0.00     0.274 C 
ATOM     12  N   UNL d   1       9.729   4.295 -13.058  0.00  0.00     0.144 N 
ATOM     13  C   UNL d   1       8.530   3.813 -13.745  0.00  0.00     0.274 C 
ATOM     14  C   UNL d   1       8.851   2.679 -14.721  0.00  0.00     0.137 C 
BRANCH  12  15
ATOM     15  C   UNL d   1       9.405   5.376 -12.145  0.00  0.00     0.285 C 
BRANCH  15  16
ATOM     16  C   UNL d   1       8.608   4.970 -10.888  0.00  0.00     0.208 C 
ATOM     17  O   UNL d   1       7.479   5.788 -10.869  0.00  0.00    -0.219 OA
BRANCH  16  18
ATOM     18  C   UNL d   1       9.367   4.918  -9.537  0.00  0.00     0.148 C 
BRANCH  18  19
ATOM     19  N   UNL d   1       9.674   6.245  -8.953  0.00  0.00    -0.247 N 
ATOM     20  C   UNL d   1      10.663   7.080  -9.328  0.00  0.00     0.348 A 
ATOM     21  N   UNL d   1      10.692   8.175  -8.601  0.00  0.00    -0.209 NA
ATOM     22  O   UNL d   1      11.501   6.905 -10.140  0.00  0.00    -0.245 OA
ATOM     23  C   UNL d   1       9.753   8.075  -7.552  0.00  0.00     0.179 A 
ATOM     24  C   UNL d   1       9.100   6.732  -7.870  0.00  0.00     0.265 A 
ATOM     25  C   UNL d   1       8.739   9.142  -7.769  0.00  0.00     0.039 C 
ATOM     26  O   UNL d   1       8.266   6.178  -7.155  0.00  0.00    -0.269 OA
BRANCH  23  27
ATOM     27  C   UNL d   1      10.484   8.120  -6.206  0.00  0.00     0.006 A 
ATOM     28  C   UNL d   1      10.926   6.920  -5.628  0.00  0.00     0.000 A 
ATOM     29  C   UNL d   1      11.551   6.896  -4.392  0.00  0.00     0.024 A 
ATOM     30  C   UNL d   1      11.829   8.092  -3.691  0.00  0.00     0.094 A 
ATOM     31  C   UNL d   1      11.448   9.315  -4.288  0.00  0.00     0.024 A 
ATOM     32  C   UNL d   1      10.793   9.330  -5.539  0.00  0.00     0.000 A 
BRANCH  30  33
ATOM     33  O   UNL d   1      12.393   8.124  -2.439  0.00  0.00    -0.328 OA
ATOM     34  C   UNL d   1      12.579   6.861  -1.808  0.00  0.00     0.181 C 
ENDBRANCH  30  33
ENDBRANCH  23  27
ENDBRANCH  18  19
ENDBRANCH  16  18
ENDBRANCH  15  16
ENDBRANCH  12  15
ENDBRANCH   1   9
TORSDOF 7
