REMARK  10 active torsions:
REMARK  status: ('A' for Active; 'I' for Inactive)
REMARK    1  A    between atoms: N_5  and  C_6 
REMARK    2  A    between atoms: C_6  and  C_7 
REMARK    3  A    between atoms: C_7  and  C_8 
REMARK    4  A    between atoms: C_11  and  O_12 
REMARK    5  A    between atoms: O_12  and  C_13 
REMARK    6  A    between atoms: C_13  and  C_14 
REMARK    7  A    between atoms: C_14  and  C_15 
REMARK    8  A    between atoms: C_15  and  C_16 
REMARK    9  A    between atoms: C_16  and  N_17 
REMARK   10  A    between atoms: C_20  and  C_21 
ROOT
ATOM      1  C   UNL d   1       9.739   6.024 -21.168  0.00  0.00     0.035 C 
ENDROOT
BRANCH   1   2
ATOM      2  C   UNL d   1       8.476   5.292 -20.688  0.00  0.00     0.149 C 
BRANCH   2   3
ATOM      3  O   UNL d   1       8.841   4.122 -19.936  0.00  0.00    -0.331 OA
BRANCH   3   4
ATOM      4  C   UNL d   1       9.207   4.252 -18.596  0.00  0.00     0.094 C 
ATOM      5  C   UNL d   1       9.274   3.049 -17.843  0.00  0.00     0.024 C 
ATOM      6  C   UNL d   1       9.578   3.089 -16.451  0.00  0.00    -0.002 C 
ATOM      7  C   UNL d   1       9.928   4.297 -15.832  0.00  0.00    -0.020 C 
ATOM      8  C   UNL d   1      10.010   5.471 -16.614  0.00  0.00    -0.002 C 
ATOM      9  C   UNL d   1       9.537   5.459 -17.939  0.00  0.00     0.024 C 
BRANCH   7  10
ATOM     10  C   UNL d   1      10.248   4.365 -14.348  0.00  0.00     0.062 C 
BRANCH  10  11
ATOM     11  C   UNL d   1       9.277   5.233 -13.494  0.00  0.00     0.255 C 
BRANCH  11  12
ATOM     12  N   UNL d   1       9.729   5.385 -12.114  0.00  0.00     0.137 N 
ATOM     13  C   UNL d   1       9.055   4.388 -11.293  0.00  0.00     0.250 C 
ATOM     14  C   UNL d   1       9.514   4.443  -9.812  0.00  0.00     0.035 C 
ATOM     15  C   UNL d   1       9.373   5.851  -9.242  0.00  0.00     0.004 C 
ATOM     16  C   UNL d   1      10.023   5.934  -7.861  0.00  0.00     0.000 C 
ATOM     17  C   UNL d   1       9.977   6.885 -10.190  0.00  0.00     0.035 C 
ATOM     18  C   UNL d   1       9.411   6.729 -11.607  0.00  0.00     0.250 C 
ENDBRANCH  11  12
ENDBRANCH  10  11
ENDBRANCH   7  10
ENDBRANCH   3   4
ENDBRANCH   2   3
ENDBRANCH   1   2
BRANCH   1  19
ATOM     19  C   UNL d   1       9.519   7.438 -21.737  0.00  0.00     0.038 C 
BRANCH  19  20
ATOM     20  C   UNL d   1      10.766   8.031 -22.440  0.00  0.00     0.250 C 
BRANCH  20  21
ATOM     21  N   UNL d   1      11.838   8.449 -21.517  0.00  0.00     0.137 N 
ATOM     22  C   UNL d   1      12.640   7.308 -21.063  0.00  0.00     0.251 C 
ATOM     23  C   UNL d   1      13.635   7.762 -20.013  0.00  0.00     0.041 C 
ATOM     24  C   UNL d   1      14.628   8.754 -20.613  0.00  0.00     0.047 C 
ATOM     25  C   UNL d   1      13.863   9.920 -21.244  0.00  0.00     0.041 C 
ATOM     26  C   UNL d   1      12.739   9.396 -22.199  0.00  0.00     0.251 C 
BRANCH  24  27
ATOM     27  C   UNL d   1      15.584   9.268 -19.568  0.00  0.00     0.087 A 
ATOM     28  C   UNL d   1      16.974   9.153 -19.504  0.00  0.00     0.041 A 
ATOM     29  C   UNL d   1      17.431   9.808 -18.360  0.00  0.00     0.129 A 
ATOM     30  C   UNL d   1      17.887   8.532 -20.377  0.00  0.00     0.006 A 
ATOM     31  O   UNL d   1      16.308  10.364 -17.776  0.00  0.00    -0.211 OA
ATOM     32  C   UNL d   1      18.776   9.847 -17.996  0.00  0.00     0.057 A 
ATOM     33  N   UNL d   1      15.158   9.962 -18.511  0.00  0.00    -0.131 NA
ATOM     34  C   UNL d   1      19.698   9.236 -18.872  0.00  0.00     0.142 A 
ATOM     35  F   UNL d   1      21.018   9.305 -18.600  0.00  0.00    -0.204 F 
ATOM     36  C   UNL d   1      19.258   8.585 -20.049  0.00  0.00     0.030 A 
ENDBRANCH  24  27
ENDBRANCH  20  21
ENDBRANCH  19  20
ENDBRANCH   1  19
TORSDOF 10
