REMARK  7 active torsions:
REMARK  status: ('A' for Active; 'I' for Inactive)
REMARK    1  A    between atoms: O_2  and  C_3 
REMARK    2  A    between atoms: C_6  and  C_7 
REMARK    3  A    between atoms: N_12  and  C_13 
REMARK    4  A    between atoms: C_13  and  C_14 
REMARK    5  A    between atoms: C_14  and  N_15 
REMARK    6  A    between atoms: N_18  and  C_19 
REMARK    7  A    between atoms: C_24  and  O_25 
ROOT
ATOM      1  C   UNL d   1       9.708   6.536  -8.981  0.00  0.00     0.083 A 
ATOM      2  C   UNL d   1      10.320   6.421 -10.204  0.00  0.00     0.027 A 
ATOM      3  C   UNL d   1       9.461   5.707 -11.105  0.00  0.00     0.094 A 
ATOM      4  C   UNL d   1       9.502   5.146 -12.493  0.00  0.00     0.267 A 
ATOM      5  O   UNL d   1      10.527   5.180 -13.185  0.00  0.00    -0.267 OA
ATOM      6  N   UNL d   1       8.376   4.516 -12.926  0.00  0.00    -0.245 N 
ATOM      7  C   UNL d   1       7.231   4.405 -12.179  0.00  0.00     0.354 A 
ATOM      8  O   UNL d   1       6.189   3.881 -12.578  0.00  0.00    -0.244 OA
ATOM      9  N   UNL d   1       7.291   4.880 -10.924  0.00  0.00    -0.173 NA
ATOM     10  C   UNL d   1       8.354   5.481 -10.380  0.00  0.00     0.172 A 
ATOM     11  N   UNL d   1       8.455   5.964  -9.094  0.00  0.00    -0.227 NA
ENDROOT
BRANCH   6  12
ATOM     12  C   UNL d   1       8.354   3.941 -14.277  0.00  0.00     0.149 C 
BRANCH  12  13
ATOM     13  C   UNL d   1       8.580   2.423 -14.271  0.00  0.00     0.275 C 
BRANCH  13  14
ATOM     14  N   UNL d   1       8.516   1.885 -15.625  0.00  0.00     0.143 N 
ATOM     15  C   UNL d   1       9.100   0.536 -15.625  0.00  0.00     0.274 C 
ATOM     16  C   UNL d   1       9.092  -0.053 -17.050  0.00  0.00     0.137 C 
ATOM     17  N   UNL d   1       7.739  -0.042 -17.588  0.00  0.00    -0.343 N 
ATOM     18  C   UNL d   1       7.050   1.233 -17.518  0.00  0.00     0.137 C 
ATOM     19  C   UNL d   1       7.119   1.776 -16.084  0.00  0.00     0.274 C 
BRANCH  17  20
ATOM     20  C   UNL d   1       7.137  -1.202 -18.109  0.00  0.00     0.079 A 
ATOM     21  C   UNL d   1       5.828  -1.597 -17.725  0.00  0.00     0.110 A 
ATOM     22  C   UNL d   1       5.282  -2.775 -18.308  0.00  0.00     0.026 A 
ATOM     23  C   UNL d   1       6.011  -3.530 -19.236  0.00  0.00     0.002 A 
ATOM     24  C   UNL d   1       7.301  -3.136 -19.599  0.00  0.00     0.002 A 
ATOM     25  C   UNL d   1       7.869  -1.980 -19.036  0.00  0.00     0.019 A 
BRANCH  21  26
ATOM     26  O   UNL d   1       5.151  -0.844 -16.784  0.00  0.00    -0.327 OA
ATOM     27  C   UNL d   1       3.881  -1.298 -16.332  0.00  0.00     0.181 C 
ENDBRANCH  21  26
ENDBRANCH  17  20
ENDBRANCH  13  14
ENDBRANCH  12  13
ENDBRANCH   6  12
BRANCH   1  28
ATOM     28  C   UNL d   1      10.161   7.129  -7.734  0.00  0.00     0.018 A 
ATOM     29  C   UNL d   1      11.034   6.418  -6.879  0.00  0.00     0.004 A 
ATOM     30  C   UNL d   1      11.457   6.964  -5.649  0.00  0.00     0.024 A 
ATOM     31  C   UNL d   1      11.088   8.285  -5.306  0.00  0.00     0.094 A 
ATOM     32  C   UNL d   1      10.259   9.001  -6.191  0.00  0.00     0.024 A 
ATOM     33  C   UNL d   1       9.781   8.429  -7.386  0.00  0.00     0.004 A 
BRANCH  31  34
ATOM     34  O   UNL d   1      11.461   8.946  -4.154  0.00  0.00    -0.328 OA
ATOM     35  C   UNL d   1      12.241   8.238  -3.204  0.00  0.00     0.181 C 
ENDBRANCH  31  34
ENDBRANCH   1  28
TORSDOF 7
