REMARK  3 active torsions:
REMARK  status: ('A' for Active; 'I' for Inactive)
REMARK    1  A    between atoms: C_12  and  C_13 
REMARK    2  A    between atoms: N_16  and  C_17 
REMARK    3  A    between atoms: C_17  and  C_18 
ROOT
ATOM      1  C   UNL d   1       9.660   7.350  -9.373  0.00  0.00     0.011 C 
ATOM      2  C   UNL d   1       9.546   5.844  -9.706  0.00  0.00     0.036 C 
ATOM      3  C   UNL d   1       8.619   5.590 -10.890  0.00  0.00     0.251 C 
ATOM      4  N   UNL d   1       9.094   6.291 -12.081  0.00  0.00     0.141 N 
ATOM      5  C   UNL d   1       9.071   7.730 -11.872  0.00  0.00     0.251 C 
ATOM      6  C   UNL d   1       9.954   8.111 -10.673  0.00  0.00     0.036 C 
ENDROOT
BRANCH   1   7
ATOM      7  C   UNL d   1      10.746   7.652  -8.284  0.00  0.00     0.062 C 
ATOM      8  C   UNL d   1      10.385   7.016  -6.929  0.00  0.00     0.172 C 
ATOM      9  O   UNL d   1       9.484   6.209  -6.839  0.00  0.00    -0.291 OA
ATOM     10  C   UNL d   1      11.110   7.500  -5.712  0.00  0.00     0.031 A 
ATOM     11  C   UNL d   1      11.829   8.691  -5.705  0.00  0.00    -0.017 A 
ATOM     12  C   UNL d   1      11.017   6.791  -4.505  0.00  0.00     0.005 A 
ATOM     13  C   UNL d   1      12.467   9.166  -4.505  0.00  0.00     0.025 A 
ATOM     14  C   UNL d   1      12.063   9.442  -6.983  0.00  0.00     0.027 C 
ATOM     15  C   UNL d   1      12.329   8.458  -3.304  0.00  0.00     0.140 A 
ATOM     16  C   UNL d   1      11.601   7.254  -3.290  0.00  0.00     0.030 A 
ATOM     17  F   UNL d   1      12.856   8.913  -2.148  0.00  0.00    -0.204 F 
ATOM     18  C   UNL d   1      10.995   9.169  -8.039  0.00  0.00     0.012 C 
ENDBRANCH   1   7
BRANCH   4  19
ATOM     19  C   UNL d   1       8.178   5.962 -13.156  0.00  0.00     0.277 C 
BRANCH  19  20
ATOM     20  C   UNL d   1       8.509   4.650 -13.824  0.00  0.00     0.011 A 
ATOM     21  C   UNL d   1       7.598   3.580 -13.773  0.00  0.00    -0.002 A 
ATOM     22  C   UNL d   1       7.905   2.372 -14.434  0.00  0.00    -0.000 A 
ATOM     23  C   UNL d   1       9.120   2.238 -15.133  0.00  0.00    -0.000 A 
ATOM     24  C   UNL d   1      10.035   3.309 -15.180  0.00  0.00    -0.000 A 
ATOM     25  C   UNL d   1       9.726   4.514 -14.525  0.00  0.00    -0.002 A 
ENDBRANCH  19  20
ENDBRANCH   4  19
TORSDOF 3
