REMARK  6 active torsions:
REMARK  status: ('A' for Active; 'I' for Inactive)
REMARK    1  A    between atoms: C_2  and  O_4 
REMARK    2  A    between atoms: O_4  and  C_5 
REMARK    3  A    between atoms: C_10  and  N_11 
REMARK    4  A    between atoms: N_14  and  C_15 
REMARK    5  A    between atoms: C_18  and  N_19 
REMARK       I    between atoms: N_19  and  C_20 
REMARK       I    between atoms: C_20  and  N_22 
REMARK    6  A    between atoms: N_22  and  C_23 
ROOT
ATOM      1  C   UNL d   1       8.201   6.020 -12.374  0.00  0.00     0.220 C 
ATOM      2  C   UNL d   1       9.020   7.304 -12.022  0.00  0.00     0.035 C 
ATOM      3  C   UNL d   1       9.971   7.029 -10.852  0.00  0.00     0.026 C 
ATOM      4  C   UNL d   1       9.311   6.503  -9.593  0.00  0.00     0.108 C 
ATOM      5  C   UNL d   1       8.416   5.307  -9.917  0.00  0.00     0.026 C 
ATOM      6  C   UNL d   1       7.453   5.574 -11.095  0.00  0.00     0.035 C 
ENDROOT
BRANCH   1   7
ATOM      7  N   UNL d   1       9.012   4.893 -12.874  0.00  0.00     0.139 N 
ATOM      8  C   UNL d   1       9.800   5.267 -14.042  0.00  0.00     0.274 C 
ATOM      9  C   UNL d   1      10.764   4.188 -14.468  0.00  0.00     0.137 C 
ATOM     10  N   UNL d   1       9.996   2.993 -14.757  0.00  0.00    -0.343 N 
ATOM     11  C   UNL d   1       9.063   2.603 -13.716  0.00  0.00     0.137 C 
ATOM     12  C   UNL d   1       8.154   3.768 -13.306  0.00  0.00     0.274 C 
BRANCH  10  13
ATOM     13  C   UNL d   1      10.153   2.330 -15.997  0.00  0.00     0.079 A 
ATOM     14  C   UNL d   1       9.053   1.761 -16.709  0.00  0.00     0.109 A 
ATOM     15  C   UNL d   1       9.361   1.026 -17.869  0.00  0.00     0.026 A 
ATOM     16  C   UNL d   1      10.641   0.973 -18.381  0.00  0.00     0.002 A 
ATOM     17  C   UNL d   1      11.738   1.568 -17.692  0.00  0.00     0.002 A 
ATOM     18  C   UNL d   1      11.468   2.230 -16.474  0.00  0.00     0.019 A 
BRANCH  14  19
ATOM     19  O   UNL d   1       7.787   1.954 -16.217  0.00  0.00    -0.332 OA
BRANCH  19  20
ATOM     20  C   UNL d   1       6.746   1.003 -16.508  0.00  0.00     0.122 C 
ATOM     21  C   UNL d   1       7.179  -0.377 -16.073  0.00  0.00     0.033 C 
ATOM     22  C   UNL d   1       6.131   1.102 -17.927  0.00  0.00     0.033 C 
ENDBRANCH  19  20
ENDBRANCH  14  19
ENDBRANCH  10  13
ENDBRANCH   1   7
BRANCH   4  23
ATOM     23  N   UNL d   1      10.263   6.142  -8.549  0.00  0.00    -0.219 NA
ATOM     24  C   UNL d   1      10.887   7.043  -7.784  0.00  0.00     0.364 C 
ATOM     25  O   UNL d   1      11.152   8.185  -8.153  0.00  0.00    -0.243 OA
ATOM     26  N   UNL d   1      11.109   6.572  -6.536  0.00  0.00    -0.191 NA
BRANCH  26  27
ATOM     27  C   UNL d   1      11.374   7.357  -5.382  0.00  0.00     0.088 A 
ATOM     28  C   UNL d   1      11.859   6.718  -4.214  0.00  0.00     0.051 A 
ATOM     29  C   UNL d   1      12.160   7.459  -3.059  0.00  0.00     0.169 A 
ATOM     30  C   UNL d   1      11.975   8.854  -3.043  0.00  0.00     0.168 A 
ATOM     31  F   UNL d   1      12.636   6.819  -1.966  0.00  0.00    -0.202 F 
ATOM     32  C   UNL d   1      11.456   9.500  -4.181  0.00  0.00     0.034 A 
ATOM     33  F   UNL d   1      12.253   9.563  -1.923  0.00  0.00    -0.202 F 
ATOM     34  C   UNL d   1      11.143   8.750  -5.333  0.00  0.00     0.022 A 
ENDBRANCH  26  27
ENDBRANCH   4  23
TORSDOF 6
