REMARK  6 active torsions:
REMARK  status: ('A' for Active; 'I' for Inactive)
REMARK    1  A    between atoms: C_6  and  C_7 
REMARK    2  A    between atoms: C_10  and  S_11 
REMARK    3  A    between atoms: S_11  and  C_12 
REMARK    4  A    between atoms: C_12  and  C_13 
REMARK    5  A    between atoms: C_13  and  C_14 
REMARK    6  A    between atoms: C_14  and  N_15 
ROOT
ATOM      1  C   UNL d   1       9.211   4.370 -14.017  0.00  0.00     0.047 C 
ENDROOT
BRANCH   1   2
ATOM      2  C   UNL d   1       7.870   4.946 -13.568  0.00  0.00     0.067 C 
BRANCH   2   3
ATOM      3  S   UNL d   1       7.617   4.761 -11.786  0.00  0.00    -0.075 SA
BRANCH   3   4
ATOM      4  C   UNL d   1       8.694   6.017 -11.191  0.00  0.00     0.193 A 
ATOM      5  N   UNL d   1       9.081   7.070 -11.912  0.00  0.00    -0.122 NA
ATOM      6  N   UNL d   1       9.821   7.840 -11.047  0.00  0.00    -0.126 NA
ATOM      7  C   UNL d   1       9.851   7.177  -9.885  0.00  0.00     0.191 A 
ATOM      8  N   UNL d   1       9.162   6.013  -9.917  0.00  0.00    -0.287 N 
ATOM      9  C   UNL d   1       8.901   5.046  -8.853  0.00  0.00     0.134 C 
BRANCH   7  10
ATOM     10  C   UNL d   1      10.576   7.739  -8.744  0.00  0.00     0.151 A 
ATOM     11  C   UNL d   1      10.278   7.897  -7.412  0.00  0.00     0.087 A 
ATOM     12  C   UNL d   1       9.059   7.501  -6.632  0.00  0.00     0.054 C 
ATOM     13  N   UNL d   1      11.362   8.524  -6.805  0.00  0.00    -0.221 NA
ATOM     14  C   UNL d   1      12.233   8.721  -7.789  0.00  0.00     0.225 A 
ATOM     15  O   UNL d   1      11.821   8.258  -8.996  0.00  0.00    -0.282 OA
ENDBRANCH   7  10
ENDBRANCH   3   4
ENDBRANCH   2   3
ENDBRANCH   1   2
BRANCH   1  16
ATOM     16  C   UNL d   1       9.431   4.545 -15.532  0.00  0.00     0.251 C 
BRANCH  16  17
ATOM     17  N   UNL d   1      10.762   4.111 -15.948  0.00  0.00     0.137 N 
ATOM     18  C   UNL d   1      11.002   4.386 -17.358  0.00  0.00     0.254 C 
ATOM     19  C   UNL d   1      12.515   4.187 -17.486  0.00  0.00     0.052 C 
ATOM     20  C   UNL d   1      13.066   4.567 -16.102  0.00  0.00     0.041 C 
ATOM     21  C   UNL d   1      13.136   5.010 -18.595  0.00  0.00    -0.024 A 
ATOM     22  C   UNL d   1      12.894   2.705 -17.864  0.00  0.00     0.011 C 
ATOM     23  C   UNL d   1      11.823   4.848 -15.271  0.00  0.00     0.251 C 
ATOM     24  C   UNL d   1      13.984   4.224 -19.371  0.00  0.00    -0.026 A 
ATOM     25  C   UNL d   1      12.964   6.373 -18.910  0.00  0.00     0.002 A 
ATOM     26  C   UNL d   1      14.036   2.779 -18.902  0.00  0.00     0.026 C 
ATOM     27  C   UNL d   1      14.713   4.748 -20.460  0.00  0.00    -0.004 A 
ATOM     28  C   UNL d   1      14.540   6.119 -20.765  0.00  0.00     0.006 A 
ATOM     29  C   UNL d   1      13.671   6.920 -19.993  0.00  0.00     0.034 A 
ATOM     30 BR   UNL d   1      13.454   8.759 -20.434  0.00  0.00    -0.049 Br
ENDBRANCH  16  17
ENDBRANCH   1  16
TORSDOF 6
