REMARK  8 active torsions:
REMARK  status: ('A' for Active; 'I' for Inactive)
REMARK    1  A    between atoms: O_2  and  C_3 
REMARK    2  A    between atoms: C_8  and  N_9 
REMARK    3  A    between atoms: N_12  and  C_13 
REMARK    4  A    between atoms: C_13  and  C_14 
REMARK    5  A    between atoms: C_14  and  C_15 
REMARK    6  A    between atoms: C_15  and  C_16 
REMARK    7  A    between atoms: C_16  and  C_17 
REMARK    8  A    between atoms: C_17  and  N_18 
ROOT
ATOM      1  C   UNL d   1      12.727   2.869 -18.513  0.00  0.00     0.035 C 
ENDROOT
BRANCH   1   2
ATOM      2  C   UNL d   1      11.877   2.144 -17.444  0.00  0.00     0.250 C 
BRANCH   2   3
ATOM      3  N   UNL d   1      11.526   3.009 -16.321  0.00  0.00     0.141 N 
ATOM      4  C   UNL d   1      10.974   2.167 -15.252  0.00  0.00     0.274 C 
ATOM      5  C   UNL d   1      10.630   3.026 -14.021  0.00  0.00     0.137 C 
ATOM      6  N   UNL d   1       9.737   4.114 -14.381  0.00  0.00    -0.343 N 
ATOM      7  C   UNL d   1      10.126   4.900 -15.539  0.00  0.00     0.137 C 
ATOM      8  C   UNL d   1      10.486   3.975 -16.717  0.00  0.00     0.274 C 
BRANCH   6   9
ATOM      9  C   UNL d   1       8.501   4.287 -13.743  0.00  0.00     0.079 A 
ATOM     10  C   UNL d   1       8.257   5.425 -12.932  0.00  0.00     0.110 A 
ATOM     11  C   UNL d   1       7.000   5.541 -12.286  0.00  0.00     0.026 A 
ATOM     12  C   UNL d   1       6.013   4.553 -12.443  0.00  0.00     0.002 A 
ATOM     13  C   UNL d   1       6.258   3.438 -13.258  0.00  0.00     0.002 A 
ATOM     14  C   UNL d   1       7.503   3.302 -13.905  0.00  0.00     0.019 A 
BRANCH  10  15
ATOM     15  O   UNL d   1       9.268   6.359 -12.797  0.00  0.00    -0.327 OA
ATOM     16  C   UNL d   1       9.036   7.483 -11.957  0.00  0.00     0.181 C 
ENDBRANCH  10  15
ENDBRANCH   6   9
ENDBRANCH   2   3
ENDBRANCH   1   2
BRANCH   1  17
ATOM     17  C   UNL d   1      12.878   2.077 -19.823  0.00  0.00     0.004 C 
BRANCH  17  18
ATOM     18  C   UNL d   1      11.531   1.728 -20.488  0.00  0.00     0.025 C 
BRANCH  18  19
ATOM     19  C   UNL d   1      11.685   1.014 -21.840  0.00  0.00     0.122 C 
BRANCH  19  20
ATOM     20  N   UNL d   1      10.383   0.547 -22.343  0.00  0.00    -0.221 N 
ATOM     21  S   UNL d   1       9.789  -1.028 -21.961  0.00  0.00     0.270 S 
ATOM     22  C   UNL d   1       8.172  -0.656 -22.561  0.00  0.00     0.108 A 
ATOM     23  O   UNL d   1      10.451  -2.006 -22.835  0.00  0.00    -0.200 OA
ATOM     24  O   UNL d   1       9.749  -1.188 -20.498  0.00  0.00    -0.200 OA
ATOM     25  C   UNL d   1       8.118   0.667 -23.004  0.00  0.00     0.069 A 
ATOM     26  C   UNL d   1       7.062  -1.516 -22.611  0.00  0.00     0.013 A 
ATOM     27  C   UNL d   1       9.408   1.412 -22.863  0.00  0.00     0.271 A 
ATOM     28  C   UNL d   1       6.919   1.189 -23.523  0.00  0.00     0.005 A 
ATOM     29  O   UNL d   1       9.578   2.599 -23.135  0.00  0.00    -0.266 OA
ATOM     30  C   UNL d   1       5.786   0.343 -23.584  0.00  0.00     0.000 A 
ATOM     31  C   UNL d   1       5.861  -0.998 -23.133  0.00  0.00     0.001 A 
ENDBRANCH  19  20
ENDBRANCH  18  19
ENDBRANCH  17  18
ENDBRANCH   1  17
TORSDOF 8
