REMARK  5 active torsions:
REMARK  status: ('A' for Active; 'I' for Inactive)
REMARK    1  A    between atoms: N_11  and  C_12 
REMARK    2  A    between atoms: N_15  and  C_16 
REMARK    3  A    between atoms: N_19  and  C_20 
REMARK    4  A    between atoms: C_20  and  C_21 
REMARK    5  A    between atoms: C_26  and  C_27 
ROOT
ATOM      1  C   UNL d   1      10.341   6.724  -8.996  0.00  0.00     0.094 C 
ATOM      2  C   UNL d   1       9.980   7.269 -10.402  0.00  0.00     0.058 C 
ATOM      3  C   UNL d   1       9.713   6.242 -11.434  0.00  0.00     0.252 C 
ATOM      4  N   UNL d   1       8.660   5.353 -10.965  0.00  0.00     0.135 N 
ATOM      5  C   UNL d   1       9.055   4.696  -9.712  0.00  0.00     0.252 C 
ATOM      6  C   UNL d   1       9.280   5.705  -8.587  0.00  0.00     0.058 C 
ENDROOT
BRANCH   4   7
ATOM      7  C   UNL d   1       8.333   4.376 -11.996  0.00  0.00     0.223 C 
ATOM      8  C   UNL d   1       7.313   4.884 -12.998  0.00  0.00     0.069 C 
ATOM      9  C   UNL d   1       7.008   3.750 -13.997  0.00  0.00     0.253 C 
ATOM     10  N   UNL d   1       8.221   3.362 -14.731  0.00  0.00     0.141 N 
ATOM     11  C   UNL d   1       9.187   2.786 -13.810  0.00  0.00     0.253 C 
ATOM     12  C   UNL d   1       9.568   3.818 -12.763  0.00  0.00     0.069 C 
BRANCH  10  13
ATOM     13  C   UNL d   1       7.851   2.387 -15.754  0.00  0.00     0.277 C 
BRANCH  13  14
ATOM     14  C   UNL d   1       8.929   2.192 -16.824  0.00  0.00     0.015 A 
ATOM     15  C   UNL d   1       9.862   1.118 -16.811  0.00  0.00     0.069 A 
ATOM     16  C   UNL d   1      10.837   1.052 -17.840  0.00  0.00     0.004 A 
ATOM     17  C   UNL d   1      10.883   2.002 -18.881  0.00  0.00    -0.000 A 
ATOM     18  C   UNL d   1       9.958   3.058 -18.897  0.00  0.00    -0.000 A 
ATOM     19  C   UNL d   1       9.001   3.150 -17.869  0.00  0.00    -0.002 A 
BRANCH  15  20
ATOM     20  C   UNL d   1       9.881   0.031 -15.735  0.00  0.00     0.418 C 
ATOM     21  F   UNL d   1       8.716  -0.214 -15.155  0.00  0.00    -0.166 F 
ATOM     22  F   UNL d   1      10.261  -1.109 -16.317  0.00  0.00    -0.166 F 
ATOM     23  F   UNL d   1      10.762   0.353 -14.789  0.00  0.00    -0.166 F 
ENDBRANCH  15  20
ENDBRANCH  13  14
ENDBRANCH  10  13
ENDBRANCH   4   7
BRANCH   1  24
ATOM     24  N   UNL d   1      10.532   7.743  -7.965  0.00  0.00    -0.281 N 
ATOM     25  C   UNL d   1      10.264   9.047  -8.115  0.00  0.00     0.350 A 
ATOM     26  O   UNL d   1       9.854   9.582  -9.131  0.00  0.00    -0.244 OA
ATOM     27  N   UNL d   1      10.543   9.672  -6.964  0.00  0.00    -0.191 NA
ATOM     28  C   UNL d   1      11.009   8.794  -6.033  0.00  0.00     0.103 A 
ATOM     29  C   UNL d   1      11.016   7.570  -6.654  0.00  0.00     0.082 A 
ATOM     30  C   UNL d   1      11.423   9.019  -4.716  0.00  0.00     0.032 A 
ATOM     31  C   UNL d   1      11.456   6.443  -5.978  0.00  0.00     0.020 A 
ATOM     32  C   UNL d   1      11.845   6.604  -4.621  0.00  0.00     0.013 A 
ATOM     33  C   UNL d   1      11.853   7.882  -4.003  0.00  0.00     0.059 A 
ATOM     34 CL   UNL d   1      12.349   8.055  -2.366  0.00  0.00    -0.082 Cl
ENDBRANCH   1  24
TORSDOF 5
