REMARK  6 active torsions:
REMARK  status: ('A' for Active; 'I' for Inactive)
REMARK    1  A    between atoms: C_2  and  C_3 
REMARK    2  A    between atoms: C_2  and  C_20 
REMARK    3  A    between atoms: C_3  and  C_4 
REMARK    4  A    between atoms: C_4  and  C_5 
REMARK    5  A    between atoms: C_5  and  N_6 
REMARK    6  A    between atoms: C_9  and  C_11 
ROOT
ATOM      1  N   UNL d   1       9.900   7.102 -10.256  0.00  0.00     0.137 N 
ATOM      2  C   UNL d   1       9.293   7.641 -11.472  0.00  0.00     0.253 C 
ATOM      3  C   UNL d   1       8.963   6.514 -12.455  0.00  0.00     0.070 C 
ATOM      4  C   UNL d   1       8.059   5.426 -11.858  0.00  0.00     0.149 C 
ATOM      5  O   UNL d   1       6.798   6.022 -11.636  0.00  0.00    -0.221 OA
ATOM      6  C   UNL d   1       8.642   4.976 -10.507  0.00  0.00     0.070 C 
ATOM      7  C   UNL d   1       9.001   6.153  -9.583  0.00  0.00     0.253 C 
ENDROOT
BRANCH   1   8
ATOM      8  C   UNL d   1      10.207   8.230  -9.378  0.00  0.00     0.250 C 
BRANCH   8   9
ATOM      9  C   UNL d   1      11.223   7.798  -8.319  0.00  0.00     0.038 C 
BRANCH   9  10
ATOM     10  C   UNL d   1      11.780   8.978  -7.509  0.00  0.00     0.040 C 
BRANCH  10  11
ATOM     11  C   UNL d   1      10.965   9.375  -6.259  0.00  0.00     0.174 C 
ATOM     12  O   UNL d   1      11.079  10.771  -6.107  0.00  0.00    -0.219 OA
BRANCH  11  13
ATOM     13  C   UNL d   1      11.419   8.643  -5.002  0.00  0.00     0.008 A 
ATOM     14  C   UNL d   1      11.833   9.327  -3.830  0.00  0.00     0.001 A 
ATOM     15  C   UNL d   1      12.260   8.643  -2.672  0.00  0.00     0.029 A 
ATOM     16  C   UNL d   1      12.262   7.239  -2.704  0.00  0.00     0.140 A 
ATOM     17  C   UNL d   1      11.867   6.573  -3.862  0.00  0.00     0.029 A 
ATOM     18  F   UNL d   1      12.666   6.513  -1.645  0.00  0.00    -0.204 F 
ATOM     19  C   UNL d   1      11.427   7.242  -4.998  0.00  0.00     0.001 A 
ENDBRANCH  11  13
ENDBRANCH  10  11
ENDBRANCH   9  10
ENDBRANCH   8   9
ENDBRANCH   1   8
BRANCH   4  20
ATOM     20  C   UNL d   1       7.929   4.240 -12.827  0.00  0.00     0.005 A 
ATOM     21  C   UNL d   1       9.089   3.610 -13.345  0.00  0.00    -0.001 A 
ATOM     22  C   UNL d   1       8.981   2.517 -14.228  0.00  0.00     0.011 A 
ATOM     23  C   UNL d   1       7.715   2.024 -14.585  0.00  0.00     0.058 A 
ATOM     24  C   UNL d   1       6.556   2.628 -14.060  0.00  0.00     0.011 A 
ATOM     25 CL   UNL d   1       7.574   0.674 -15.651  0.00  0.00    -0.082 Cl
ATOM     26  C   UNL d   1       6.661   3.735 -13.198  0.00  0.00    -0.001 A 
ENDBRANCH   4  20
TORSDOF 6
