REMARK  3 active torsions:
REMARK  status: ('A' for Active; 'I' for Inactive)
REMARK    1  A    between atoms: C_5  and  C_6 
REMARK    2  A    between atoms: N_8  and  C_9 
REMARK    3  A    between atoms: C_19  and  C_20 
ROOT
ATOM      1  C   UNL d   1       8.179   4.359 -13.191  0.00  0.00    -0.003 A 
ATOM      2  C   UNL d   1       7.207   3.415 -13.371  0.00  0.00     0.076 A 
ATOM      3  N   UNL d   1       7.501   2.598 -14.467  0.00  0.00    -0.305 N 
ATOM      4  C   UNL d   1       8.693   3.036 -15.050  0.00  0.00     0.064 A 
ATOM      5  C   UNL d   1       9.445   2.588 -16.172  0.00  0.00     0.018 A 
ATOM      6  C   UNL d   1      10.595   3.287 -16.567  0.00  0.00     0.002 A 
ATOM      7  C   UNL d   1      11.043   4.411 -15.831  0.00  0.00     0.000 A 
ATOM      8  C   UNL d   1      10.304   4.817 -14.704  0.00  0.00     0.001 A 
ATOM      9  C   UNL d   1       9.118   4.169 -14.281  0.00  0.00     0.014 A 
ENDROOT
BRANCH   1  10
ATOM     10  C   UNL d   1       8.219   5.358 -12.056  0.00  0.00     0.028 C 
ATOM     11  C   UNL d   1       9.340   6.380 -12.255  0.00  0.00     0.040 C 
ATOM     12  C   UNL d   1       9.523   7.354 -11.098  0.00  0.00     0.251 C 
ATOM     13  N   UNL d   1       9.845   6.578  -9.900  0.00  0.00     0.139 N 
ATOM     14  C   UNL d   1      10.067   7.511  -8.811  0.00  0.00     0.285 C 
ATOM     15  C   UNL d   1       8.715   5.702  -9.574  0.00  0.00     0.251 C 
ATOM     16  C   UNL d   1       8.475   4.679 -10.699  0.00  0.00     0.040 C 
ENDBRANCH   1  10
BRANCH   3  17
ATOM     17  C   UNL d   1       6.697   1.510 -14.908  0.00  0.00     0.064 A 
ATOM     18  C   UNL d   1       6.634   1.178 -16.286  0.00  0.00     0.020 A 
ATOM     19  C   UNL d   1       5.848   0.098 -16.727  0.00  0.00     0.031 A 
ATOM     20  C   UNL d   1       5.075  -0.635 -15.810  0.00  0.00     0.140 A 
ATOM     21  C   UNL d   1       5.103  -0.299 -14.442  0.00  0.00     0.031 A 
ATOM     22  F   UNL d   1       4.280  -1.637 -16.246  0.00  0.00    -0.204 F 
ATOM     23  C   UNL d   1       5.918   0.762 -13.989  0.00  0.00     0.020 A 
ENDBRANCH   3  17
BRANCH   7  24
ATOM     24  C   UNL d   1      12.264   5.138 -16.217  0.00  0.00     0.003 A 
ATOM     25  C   UNL d   1      13.374   4.460 -16.759  0.00  0.00     0.021 A 
ATOM     26  C   UNL d   1      14.527   5.192 -17.099  0.00  0.00     0.099 A 
ATOM     27  N   UNL d   1      14.637   6.525 -16.924  0.00  0.00    -0.242 NA
ATOM     28  C   UNL d   1      13.578   7.177 -16.406  0.00  0.00     0.099 A 
ATOM     29  C   UNL d   1      12.385   6.535 -16.034  0.00  0.00     0.021 A 
ENDBRANCH   7  24
TORSDOF 3
