REMARK  1 active torsions:
REMARK  status: ('A' for Active; 'I' for Inactive)
REMARK       I    between atoms: N_6  and  C_7 
REMARK    1  A    between atoms: C_7  and  C_9 
ROOT
ATOM      1  C   UNL d   1       8.235   0.834 -17.541  0.00  0.00     0.128 C 
ATOM      2  C   UNL d   1       8.768   1.955 -16.680  0.00  0.00    -0.018 C 
ATOM      3  C   UNL d   1       8.394   2.128 -15.401  0.00  0.00     0.005 C 
ATOM      4  C   UNL d   1       8.788   3.294 -14.619  0.00  0.00    -0.001 A 
ATOM      5  C   UNL d   1       9.948   4.075 -14.793  0.00  0.00    -0.000 A 
ATOM      6  C   UNL d   1      10.178   5.185 -13.969  0.00  0.00     0.002 A 
ATOM      7  C   UNL d   1       9.258   5.514 -12.949  0.00  0.00     0.019 A 
ATOM      8  C   UNL d   1       8.094   4.787 -12.806  0.00  0.00     0.081 A 
ATOM      9  N   UNL d   1       7.026   4.901 -11.951  0.00  0.00    -0.244 NA
ATOM     10  C   UNL d   1       6.096   3.907 -12.204  0.00  0.00     0.095 A 
ATOM     11  C   UNL d   1       6.616   3.193 -13.250  0.00  0.00     0.001 A 
ATOM     12  C   UNL d   1       7.867   3.708 -13.638  0.00  0.00     0.015 A 
ATOM     13  C   UNL d   1       6.271   1.932 -14.025  0.00  0.00     0.066 C 
ATOM     14  C   UNL d   1       7.471   1.159 -14.666  0.00  0.00     0.246 C 
ATOM     15  N   UNL d   1       7.090  -0.003 -15.490  0.00  0.00     0.142 N 
ATOM     16  C   UNL d   1       5.998  -0.822 -14.983  0.00  0.00     0.286 C 
ATOM     17  C   UNL d   1       6.928   0.292 -16.911  0.00  0.00     0.264 C 
ENDROOT
BRANCH   1  18
ATOM     18  C   UNL d   1       9.297  -0.267 -17.766  0.00  0.00     0.219 C 
ATOM     19  N   UNL d   1       9.675  -0.572 -19.084  0.00  0.00    -0.226 NA
ATOM     20  C   UNL d   1      11.075  -0.461 -19.505  0.00  0.00     0.066 C 
ATOM     21  C   UNL d   1       9.154   0.098 -20.271  0.00  0.00     0.066 C 
ATOM     22  C   UNL d   1      11.863   0.678 -18.838  0.00  0.00     0.018 C 
ATOM     23  C   UNL d   1      10.499  -0.238 -20.912  0.00  0.00     0.033 C 
ATOM     24  C   UNL d   1       7.872  -0.553 -20.793  0.00  0.00     0.018 C 
ATOM     25  O   UNL d   1       9.882  -0.808 -16.827  0.00  0.00    -0.278 OA
ENDBRANCH   1  18
TORSDOF 1
