REMARK  5 active torsions:
REMARK  status: ('A' for Active; 'I' for Inactive)
REMARK    1  A    between atoms: C_8  and  C_9 
REMARK    2  A    between atoms: C_9  and  C_11 
REMARK    3  A    between atoms: C_11  and  C_12 
REMARK    4  A    between atoms: C_12  and  C_13 
REMARK    5  A    between atoms: C_13  and  N_14 
ROOT
ATOM      1  N   UNL d   1       9.470   4.219 -14.184  0.00  0.00     0.137 N 
ATOM      2  C   UNL d   1      10.895   4.419 -14.430  0.00  0.00     0.252 C 
ATOM      3  C   UNL d   1      11.309   3.498 -15.585  0.00  0.00     0.058 C 
ATOM      4  C   UNL d   1      11.058   1.996 -15.297  0.00  0.00     0.089 C 
ATOM      5  C   UNL d   1       9.678   1.774 -14.657  0.00  0.00     0.078 C 
ATOM      6  C   UNL d   1       9.261   2.859 -13.682  0.00  0.00     0.256 C 
ATOM      7  C   UNL d   1       8.773   1.571 -15.835  0.00  0.00    -0.001 A 
ATOM      8  C   UNL d   1       7.395   1.702 -16.058  0.00  0.00    -0.003 A 
ATOM      9  C   UNL d   1       6.919   1.480 -17.371  0.00  0.00     0.002 A 
ATOM     10  C   UNL d   1       7.808   1.143 -18.431  0.00  0.00     0.026 A 
ATOM     11  C   UNL d   1       9.205   1.004 -18.232  0.00  0.00     0.109 A 
ATOM     12  C   UNL d   1       9.591   1.241 -16.905  0.00  0.00     0.075 A 
ATOM     13  N   UNL d   1      10.952   1.231 -16.530  0.00  0.00    -0.346 N 
ATOM     14  C   UNL d   1      11.872   1.315 -17.652  0.00  0.00     0.134 C 
ATOM     15  C   UNL d   1      11.407   0.366 -18.778  0.00  0.00     0.173 C 
ATOM     16  O   UNL d   1      10.096   0.705 -19.238  0.00  0.00    -0.327 OA
ENDROOT
BRANCH   1  17
ATOM     17  C   UNL d   1       8.935   5.226 -13.261  0.00  0.00     0.251 C 
BRANCH  17  18
ATOM     18  C   UNL d   1       9.170   4.916 -11.764  0.00  0.00     0.043 C 
BRANCH  18  19
ATOM     19  C   UNL d   1       8.569   5.927 -10.811  0.00  0.00     0.071 C 
BRANCH  19  20
ATOM     20  C   UNL d   1       9.466   7.157 -10.603  0.00  0.00     0.174 C 
ATOM     21  O   UNL d   1       9.656   7.901 -11.573  0.00  0.00    -0.291 OA
BRANCH  20  22
ATOM     22  C   UNL d   1       9.989   7.405  -9.232  0.00  0.00     0.048 A 
ATOM     23  C   UNL d   1      11.139   8.205  -8.994  0.00  0.00     0.075 A 
ATOM     24  N   UNL d   1      11.875   8.787 -10.037  0.00  0.00    -0.100 NA
ATOM     25  C   UNL d   1      11.581   8.438  -7.672  0.00  0.00     0.044 A 
ATOM     26  C   UNL d   1      10.876   7.900  -6.575  0.00  0.00     0.141 A 
ATOM     27  F   UNL d   1      11.303   8.130  -5.311  0.00  0.00    -0.204 F 
ATOM     28  C   UNL d   1       9.725   7.127  -6.800  0.00  0.00     0.030 A 
ATOM     29  C   UNL d   1       9.270   6.903  -8.110  0.00  0.00     0.006 A 
ENDBRANCH  20  22
ENDBRANCH  19  20
ENDBRANCH  18  19
ENDBRANCH  17  18
ENDBRANCH   1  17
TORSDOF 5
