REMARK  8 active torsions:
REMARK  status: ('A' for Active; 'I' for Inactive)
REMARK    1  A    between atoms: C_2  and  O_3 
REMARK    2  A    between atoms: O_3  and  C_4 
REMARK    3  A    between atoms: C_9  and  N_10 
REMARK    4  A    between atoms: N_13  and  C_14 
REMARK    5  A    between atoms: C_14  and  C_15 
REMARK    6  A    between atoms: C_15  and  C_17 
REMARK    7  A    between atoms: C_17  and  N_18 
REMARK    8  A    between atoms: C_22  and  C_24 
ROOT
ATOM      1  C   UNL d   1       6.890   1.869 -15.225  0.00  0.00     0.208 C 
ATOM      2  O   UNL d   1       7.005   2.143 -16.584  0.00  0.00    -0.219 OA
ENDROOT
BRANCH   1   3
ATOM      3  C   UNL d   1       7.847   2.816 -14.450  0.00  0.00     0.285 C 
BRANCH   3   4
ATOM      4  N   UNL d   1       9.260   2.830 -14.860  0.00  0.00     0.144 N 
ATOM      5  C   UNL d   1       9.803   1.488 -15.026  0.00  0.00     0.274 C 
ATOM      6  C   UNL d   1      11.263   1.412 -15.378  0.00  0.00     0.137 C 
ATOM      7  N   UNL d   1      11.475   2.230 -16.566  0.00  0.00    -0.343 N 
ATOM      8  C   UNL d   1      10.996   3.610 -16.495  0.00  0.00     0.137 C 
ATOM      9  C   UNL d   1       9.508   3.623 -16.089  0.00  0.00     0.274 C 
BRANCH   7  10
ATOM     10  C   UNL d   1      12.059   1.704 -17.745  0.00  0.00     0.079 A 
ATOM     11  C   UNL d   1      11.667   0.456 -18.295  0.00  0.00     0.109 A 
ATOM     12  C   UNL d   1      12.336  -0.013 -19.454  0.00  0.00     0.026 A 
ATOM     13  C   UNL d   1      13.360   0.731 -20.056  0.00  0.00     0.002 A 
ATOM     14  C   UNL d   1      13.729   1.971 -19.507  0.00  0.00     0.002 A 
ATOM     15  C   UNL d   1      13.074   2.453 -18.365  0.00  0.00     0.019 A 
BRANCH  11  16
ATOM     16  O   UNL d   1      10.624  -0.222 -17.686  0.00  0.00    -0.329 OA
BRANCH  16  17
ATOM     17  C   UNL d   1      10.073  -1.353 -18.343  0.00  0.00     0.149 C 
ATOM     18  C   UNL d   1       9.247  -0.933 -19.599  0.00  0.00     0.035 C 
ENDBRANCH  16  17
ENDBRANCH  11  16
ENDBRANCH   7  10
ENDBRANCH   3   4
ENDBRANCH   1   3
BRANCH   1  19
ATOM     19  C   UNL d   1       6.999   0.349 -14.847  0.00  0.00     0.148 C 
BRANCH  19  20
ATOM     20  N   UNL d   1       6.049  -0.422 -15.656  0.00  0.00    -0.247 N 
ATOM     21  C   UNL d   1       6.239  -0.748 -16.942  0.00  0.00     0.265 A 
ATOM     22  C   UNL d   1       5.099  -1.638 -17.399  0.00  0.00     0.179 A 
ATOM     23  O   UNL d   1       7.171  -0.439 -17.668  0.00  0.00    -0.269 OA
ATOM     24  N   UNL d   1       4.314  -1.649 -16.138  0.00  0.00    -0.209 NA
ATOM     25  C   UNL d   1       4.290  -0.951 -18.517  0.00  0.00     0.039 C 
ATOM     26  C   UNL d   1       4.903  -0.952 -15.145  0.00  0.00     0.348 A 
ATOM     27  O   UNL d   1       4.484  -0.820 -13.994  0.00  0.00    -0.245 OA
BRANCH  22  28
ATOM     28  C   UNL d   1       5.654  -3.018 -17.827  0.00  0.00     0.006 A 
ATOM     29  C   UNL d   1       5.500  -4.142 -16.986  0.00  0.00    -0.002 A 
ATOM     30  C   UNL d   1       5.946  -5.417 -17.367  0.00  0.00    -0.000 A 
ATOM     31  C   UNL d   1       6.615  -5.587 -18.587  0.00  0.00    -0.000 A 
ATOM     32  C   UNL d   1       6.826  -4.476 -19.429  0.00  0.00    -0.000 A 
ATOM     33  C   UNL d   1       6.344  -3.200 -19.052  0.00  0.00    -0.002 A 
ENDBRANCH  22  28
ENDBRANCH  19  20
ENDBRANCH   1  19
TORSDOF 8
