REMARK  2 active torsions:
REMARK  status: ('A' for Active; 'I' for Inactive)
REMARK    1  A    between atoms: N_2  and  C_4 
REMARK    2  A    between atoms: C_4  and  C_5 
ROOT
ATOM      1  C   UNL d   1      10.041   0.777 -16.434  0.00  0.00     0.149 C 
ATOM      2  C   UNL d   1       9.482   1.832 -15.454  0.00  0.00     0.039 C 
ATOM      3  C   UNL d   1       7.984   1.607 -15.518  0.00  0.00     0.058 C 
ATOM      4  C   UNL d   1       7.167   2.214 -14.378  0.00  0.00     0.003 A 
ATOM      5  C   UNL d   1       7.407   3.566 -14.034  0.00  0.00    -0.002 A 
ATOM      6  C   UNL d   1       6.642   4.230 -13.056  0.00  0.00    -0.000 A 
ATOM      7  C   UNL d   1       5.658   3.518 -12.358  0.00  0.00     0.002 A 
ATOM      8  C   UNL d   1       5.444   2.163 -12.662  0.00  0.00     0.024 A 
ATOM      9  C   UNL d   1       6.164   1.494 -13.665  0.00  0.00     0.096 A 
ATOM     10  O   UNL d   1       5.892   0.156 -13.822  0.00  0.00    -0.308 OA
ATOM     11  C   UNL d   1       5.566  -0.311 -15.068  0.00  0.00     0.098 A 
ATOM     12  C   UNL d   1       4.259  -0.758 -15.338  0.00  0.00     0.025 A 
ATOM     13  C   UNL d   1       3.944  -1.247 -16.620  0.00  0.00     0.009 A 
ATOM     14  C   UNL d   1       4.929  -1.299 -17.623  0.00  0.00     0.035 A 
ATOM     15 BR   UNL d   1       4.473  -1.943 -19.352  0.00  0.00    -0.049 Br
ATOM     16  C   UNL d   1       6.244  -0.875 -17.348  0.00  0.00     0.007 A 
ATOM     17  C   UNL d   1       6.557  -0.385 -16.065  0.00  0.00     0.028 A 
ATOM     18  C   UNL d   1       7.944   0.100 -15.705  0.00  0.00     0.143 C 
ATOM     19  O   UNL d   1       8.940  -0.093 -16.702  0.00  0.00    -0.352 OA
ENDROOT
BRANCH   1  20
ATOM     20  C   UNL d   1      10.496   1.369 -17.781  0.00  0.00     0.280 C 
BRANCH  20  21
ATOM     21  N   UNL d   1      11.907   1.755 -17.860  0.00  0.00     0.144 N 
ATOM     22  C   UNL d   1      12.243   2.196 -19.208  0.00  0.00     0.286 C 
ATOM     23  C   UNL d   1      12.276   2.775 -16.887  0.00  0.00     0.286 C 
ENDBRANCH  20  21
ENDBRANCH   1  20
TORSDOF 2
