REMARK  5 active torsions:
REMARK  status: ('A' for Active; 'I' for Inactive)
REMARK    1  A    between atoms: C_7  and  C_8 
REMARK    2  A    between atoms: C_10  and  N_11 
REMARK    3  A    between atoms: N_23  and  S_24 
REMARK    4  A    between atoms: S_24  and  C_27 
REMARK    5  A    between atoms: C_27  and  C_28 
ROOT
ATOM      1  C   UNL d   1       7.648   1.399 -15.450  0.00  0.00     0.009 A 
ATOM      2  C   UNL d   1       7.573   2.422 -14.488  0.00  0.00     0.037 A 
ATOM      3  C   UNL d   1       8.573   3.418 -14.419  0.00  0.00     0.142 A 
ATOM      4  N   UNL d   1       9.634   3.442 -15.257  0.00  0.00    -0.211 NA
ATOM      5  C   UNL d   1       9.692   2.431 -16.174  0.00  0.00     0.158 A 
ATOM      6  C   UNL d   1       8.749   1.379 -16.335  0.00  0.00     0.037 A 
ATOM      7  C   UNL d   1       9.194   0.522 -17.392  0.00  0.00     0.023 A 
ATOM      8  C   UNL d   1      10.365   1.062 -17.859  0.00  0.00     0.093 A 
ATOM      9  N   UNL d   1      10.673   2.202 -17.135  0.00  0.00    -0.218 N 
ENDROOT
BRANCH   1  10
ATOM     10  C   UNL d   1       6.593   0.377 -15.517  0.00  0.00     0.037 A 
ATOM     11  C   UNL d   1       6.137  -0.452 -14.456  0.00  0.00     0.088 A 
ATOM     12  C   UNL d   1       6.623  -0.558 -13.045  0.00  0.00     0.055 C 
ATOM     13  N   UNL d   1       5.142  -1.219 -14.862  0.00  0.00    -0.131 NA
ATOM     14  O   UNL d   1       4.950  -0.930 -16.221  0.00  0.00    -0.216 OA
ATOM     15  C   UNL d   1       5.826   0.040 -16.590  0.00  0.00     0.104 A 
ATOM     16  C   UNL d   1       5.752   0.527 -17.997  0.00  0.00     0.061 C 
ENDBRANCH   1  10
BRANCH   3  17
ATOM     17  N   UNL d   1       8.482   4.455 -13.473  0.00  0.00    -0.330 N 
ATOM     18  C   UNL d   1       7.214   4.904 -12.905  0.00  0.00     0.138 C 
ATOM     19  C   UNL d   1       7.254   4.816 -11.374  0.00  0.00     0.274 C 
ATOM     20  N   UNL d   1       8.375   5.591 -10.859  0.00  0.00     0.143 N 
ATOM     21  C   UNL d   1       9.622   5.051 -11.377  0.00  0.00     0.274 C 
ATOM     22  C   UNL d   1       8.388   5.551  -9.400  0.00  0.00     0.286 C 
ATOM     23  C   UNL d   1       9.655   5.122 -12.918  0.00  0.00     0.138 C 
ENDBRANCH   3  17
BRANCH   9  24
ATOM     24  S   UNL d   1      12.080   3.152 -17.375  0.00  0.00     0.252 S 
ATOM     25  O   UNL d   1      12.569   3.499 -16.047  0.00  0.00    -0.204 OA
ATOM     26  O   UNL d   1      12.909   2.371 -18.335  0.00  0.00    -0.204 OA
BRANCH  24  27
ATOM     27  C   UNL d   1      11.356   4.613 -18.268  0.00  0.00     0.145 C 
BRANCH  27  28
ATOM     28  C   UNL d   1      12.064   5.965 -18.010  0.00  0.00     0.018 C 
ATOM     29  C   UNL d   1      12.083   6.390 -16.524  0.00  0.00     0.001 C 
ATOM     30  C   UNL d   1      11.437   7.080 -18.869  0.00  0.00     0.001 C 
ENDBRANCH  27  28
ENDBRANCH  24  27
ENDBRANCH   9  24
TORSDOF 5
