REMARK  2 active torsions:
REMARK  status: ('A' for Active; 'I' for Inactive)
REMARK    1  A    between atoms: C_2  and  N_3 
REMARK    2  A    between atoms: C_7  and  C_8 
ROOT
ATOM      1  C   UNL d   1      10.893   8.289  -6.891  0.00  0.00     0.038 A 
ATOM      2  C   UNL d   1      11.274   9.595  -7.064  0.00  0.00     0.100 A 
ATOM      3  N   UNL d   1      11.849  10.092  -5.916  0.00  0.00    -0.244 NA
ATOM      4  C   UNL d   1      11.859   9.130  -4.941  0.00  0.00     0.084 A 
ATOM      5  C   UNL d   1      12.332   9.140  -3.623  0.00  0.00     0.049 A 
ATOM      6  C   UNL d   1      12.222   7.982  -2.842  0.00  0.00     0.142 A 
ATOM      7  F   UNL d   1      12.659   7.986  -1.561  0.00  0.00    -0.204 F 
ATOM      8  C   UNL d   1      11.640   6.826  -3.389  0.00  0.00     0.030 A 
ATOM      9  C   UNL d   1      11.166   6.830  -4.718  0.00  0.00     0.004 A 
ATOM     10  C   UNL d   1      11.264   7.977  -5.532  0.00  0.00     0.021 A 
ENDROOT
BRANCH   1  11
ATOM     11  C   UNL d   1      10.262   7.393  -7.861  0.00  0.00     0.082 A 
ATOM     12  N   UNL d   1      10.454   7.444  -9.248  0.00  0.00    -0.309 N 
ATOM     13  C   UNL d   1       9.737   6.422  -9.735  0.00  0.00     0.179 A 
ATOM     14  N   UNL d   1       9.087   5.712  -8.829  0.00  0.00    -0.223 NA
ATOM     15  C   UNL d   1       9.387   6.354  -7.634  0.00  0.00     0.118 A 
BRANCH  12  16
ATOM     16  C   UNL d   1      11.266   8.354 -10.048  0.00  0.00     0.108 C 
ATOM     17  C   UNL d   1      12.759   7.979 -10.038  0.00  0.00     0.027 C 
ENDBRANCH  12  16
ENDBRANCH   1  11
TORSDOF 2
