REMARK  6 active torsions:
REMARK  status: ('A' for Active; 'I' for Inactive)
REMARK    1  A    between atoms: S_2  and  C_4 
REMARK    2  A    between atoms: S_2  and  N_14 
REMARK    3  A    between atoms: C_17  and  C_18 
REMARK    4  A    between atoms: C_18  and  C_19 
REMARK    5  A    between atoms: C_19  and  N_20 
REMARK    6  A    between atoms: N_23  and  C_24 
ROOT
ATOM      1  N   UNL d   1       7.148   2.912 -13.890  0.00  0.00    -0.275 N 
ATOM      2  C   UNL d   1       6.376   3.846 -13.030  0.00  0.00     0.113 C 
ATOM      3  C   UNL d   1       7.241   4.394 -11.886  0.00  0.00     0.025 C 
ATOM      4  C   UNL d   1       8.574   4.977 -12.391  0.00  0.00     0.006 C 
ATOM      5  C   UNL d   1       9.326   3.876 -13.150  0.00  0.00     0.025 C 
ATOM      6  C   UNL d   1       8.499   3.339 -14.295  0.00  0.00     0.113 C 
ENDROOT
BRANCH   4   7
ATOM      7  C   UNL d   1       9.467   5.485 -11.268  0.00  0.00     0.035 C 
BRANCH   7   8
ATOM      8  C   UNL d   1       8.914   6.686 -10.496  0.00  0.00     0.250 C 
BRANCH   8   9
ATOM      9  N   UNL d   1       9.934   7.382  -9.697  0.00  0.00     0.141 N 
ATOM     10  C   UNL d   1      10.584   6.465  -8.764  0.00  0.00     0.274 C 
ATOM     11  C   UNL d   1      11.688   7.196  -7.989  0.00  0.00     0.137 C 
ATOM     12  N   UNL d   1      11.103   8.286  -7.237  0.00  0.00    -0.344 N 
ATOM     13  C   UNL d   1      10.323   9.195  -8.062  0.00  0.00     0.137 C 
ATOM     14  C   UNL d   1       9.290   8.420  -8.887  0.00  0.00     0.274 C 
BRANCH  12  15
ATOM     15  C   UNL d   1      11.232   8.401  -5.854  0.00  0.00     0.056 A 
ATOM     16  C   UNL d   1      11.236   9.673  -5.234  0.00  0.00     0.017 A 
ATOM     17  C   UNL d   1      11.460   9.782  -3.844  0.00  0.00     0.002 A 
ATOM     18  C   UNL d   1      11.688   8.635  -3.067  0.00  0.00     0.000 A 
ATOM     19  C   UNL d   1      11.674   7.368  -3.667  0.00  0.00     0.002 A 
ATOM     20  C   UNL d   1      11.424   7.252  -5.050  0.00  0.00     0.017 A 
ENDBRANCH  12  15
ENDBRANCH   8   9
ENDBRANCH   7   8
ENDBRANCH   4   7
BRANCH   1  21
ATOM     21  S   UNL d   1       6.635   1.258 -14.153  0.00  0.00     0.266 S 
ATOM     22  O   UNL d   1       5.292   1.140 -13.562  0.00  0.00    -0.200 OA
ATOM     23  O   UNL d   1       7.703   0.366 -13.696  0.00  0.00    -0.200 OA
BRANCH  21  24
ATOM     24  C   UNL d   1       6.549   1.080 -15.951  0.00  0.00     0.122 A 
ATOM     25  C   UNL d   1       5.659   0.178 -16.596  0.00  0.00     0.015 A 
ATOM     26  C   UNL d   1       5.685   0.121 -18.019  0.00  0.00     0.020 A 
ATOM     27  C   UNL d   1       4.735  -0.653 -15.913  0.00  0.00     0.001 A 
ATOM     28  C   UNL d   1       6.594   0.928 -18.726  0.00  0.00     0.099 A 
ATOM     29  C   UNL d   1       4.814  -0.724 -18.739  0.00  0.00     0.002 A 
ATOM     30  N   UNL d   1       7.453   1.767 -18.122  0.00  0.00    -0.242 NA
ATOM     31  C   UNL d   1       7.432   1.839 -16.767  0.00  0.00     0.112 A 
ATOM     32  C   UNL d   1       3.897  -1.532 -18.046  0.00  0.00     0.000 A 
ATOM     33  C   UNL d   1       3.857  -1.488 -16.639  0.00  0.00     0.000 A 
ENDBRANCH  21  24
ENDBRANCH   1  21
TORSDOF 6
