REMARK  1 active torsions:
REMARK  status: ('A' for Active; 'I' for Inactive)
REMARK    1  A    between atoms: N_6  and  C_7 
ROOT
ATOM      1  C   UNL d   1       7.399   3.191 -13.905  0.00  0.00     0.142 C 
ATOM      2  N   UNL d   1       6.291   2.554 -13.633  0.00  0.00    -0.226 NA
ATOM      3  C   UNL d   1       6.020   1.198 -13.813  0.00  0.00     0.119 C 
ATOM      4  C   UNL d   1       4.685   0.748 -13.647  0.00  0.00     0.024 C 
ATOM      5  C   UNL d   1       4.314  -0.525 -14.088  0.00  0.00     0.022 C 
ATOM      6  C   UNL d   1       5.352  -1.422 -14.393  0.00  0.00     0.101 C 
ATOM      7  N   UNL d   1       6.642  -1.112 -14.161  0.00  0.00    -0.224 NA
ATOM      8  C   UNL d   1       6.982   0.167 -14.011  0.00  0.00     0.180 C 
ATOM      9  N   UNL d   1       8.351   0.389 -14.058  0.00  0.00    -0.225 NA
ATOM     10  C   UNL d   1       8.950   1.345 -14.868  0.00  0.00     0.086 A 
ATOM     11  C   UNL d   1      10.005   0.957 -15.724  0.00  0.00     0.020 A 
ATOM     12  C   UNL d   1      10.594   1.881 -16.595  0.00  0.00     0.013 A 
ATOM     13  C   UNL d   1      10.108   3.221 -16.578  0.00  0.00     0.058 A 
ATOM     14 CL   UNL d   1      10.750   4.422 -17.649  0.00  0.00    -0.082 Cl
ATOM     15  C   UNL d   1       9.103   3.605 -15.697  0.00  0.00     0.016 A 
ATOM     16  C   UNL d   1       8.473   2.692 -14.830  0.00  0.00     0.052 A 
ENDROOT
BRANCH   1  17
ATOM     17  N   UNL d   1       7.635   4.421 -13.312  0.00  0.00    -0.332 N 
ATOM     18  C   UNL d   1       6.518   5.146 -12.694  0.00  0.00     0.105 C 
ATOM     19  C   UNL d   1       6.932   6.189 -11.623  0.00  0.00     0.059 C 
ATOM     20  C   UNL d   1       7.716   5.550 -10.469  0.00  0.00     0.252 C 
ATOM     21  N   UNL d   1       9.151   5.624 -10.675  0.00  0.00     0.141 N 
ATOM     22  C   UNL d   1       9.793   5.362  -9.392  0.00  0.00     0.285 C 
ATOM     23  C   UNL d   1       9.499   4.599 -11.657  0.00  0.00     0.274 C 
ATOM     24  C   UNL d   1       8.979   4.957 -13.026  0.00  0.00     0.138 C 
ENDBRANCH   1  17
TORSDOF 1
