REMARK  2 active torsions:
REMARK  status: ('A' for Active; 'I' for Inactive)
REMARK    1  A    between atoms: C_6  and  C_7 
REMARK    2  A    between atoms: C_13  and  N_14 
ROOT
ATOM      1  C   UNL d   1       8.254   0.810 -16.143  0.00  0.00    -0.000 A 
ATOM      2  C   UNL d   1       9.292  -0.085 -16.430  0.00  0.00     0.001 A 
ATOM      3  C   UNL d   1      10.549   0.378 -16.866  0.00  0.00     0.006 A 
ATOM      4  C   UNL d   1      10.782   1.751 -17.012  0.00  0.00     0.027 A 
ATOM      5  C   UNL d   1       9.743   2.699 -16.740  0.00  0.00     0.015 A 
ATOM      6  C   UNL d   1       8.488   2.176 -16.333  0.00  0.00    -0.002 A 
ATOM      7  C   UNL d   1       9.944   4.223 -16.685  0.00  0.00     0.246 C 
ATOM      8  C   UNL d   1      11.059   4.896 -17.521  0.00  0.00     0.065 C 
ATOM      9  C   UNL d   1      11.294   4.273 -18.896  0.00  0.00    -0.014 A 
ATOM     10  C   UNL d   1      10.883   4.927 -20.072  0.00  0.00    -0.004 A 
ATOM     11  C   UNL d   1      11.135   4.328 -21.324  0.00  0.00    -0.000 A 
ATOM     12  C   UNL d   1      11.788   3.080 -21.401  0.00  0.00     0.001 A 
ATOM     13  C   UNL d   1      12.194   2.428 -20.223  0.00  0.00     0.006 A 
ATOM     14  C   UNL d   1      11.948   3.038 -18.983  0.00  0.00     0.025 A 
ATOM     15  S   UNL d   1      12.397   2.225 -17.508  0.00  0.00    -0.087 SA
ENDROOT
BRANCH   1  16
ATOM     16  C   UNL d   1       6.944   0.376 -15.645  0.00  0.00    -0.000 A 
ATOM     17  C   UNL d   1       6.415   0.801 -14.397  0.00  0.00    -0.000 A 
ATOM     18  C   UNL d   1       5.149   0.361 -13.962  0.00  0.00    -0.000 A 
ATOM     19  C   UNL d   1       4.386  -0.504 -14.773  0.00  0.00    -0.004 A 
ATOM     20  C   UNL d   1       4.895  -0.919 -16.020  0.00  0.00    -0.022 A 
ATOM     21  C   UNL d   1       4.102  -1.855 -16.909  0.00  0.00     0.031 C 
ATOM     22  C   UNL d   1       6.157  -0.476 -16.445  0.00  0.00    -0.004 A 
ENDBRANCH   1  16
BRANCH   7  23
ATOM     23  N   UNL d   1       9.958   4.753 -15.291  0.00  0.00     0.144 N 
ATOM     24  C   UNL d   1      10.561   3.818 -14.350  0.00  0.00     0.286 C 
ATOM     25  C   UNL d   1      10.597   4.392 -12.951  0.00  0.00     0.286 C 
ATOM     26  N   UNL d   1       9.296   4.799 -12.447  0.00  0.00     0.143 N 
ATOM     27  C   UNL d   1       8.736   5.776 -13.350  0.00  0.00     0.286 C 
ATOM     28  C   UNL d   1       9.392   5.337 -11.096  0.00  0.00     0.285 C 
ATOM     29  C   UNL d   1       8.661   5.188 -14.775  0.00  0.00     0.286 C 
ENDBRANCH   7  23
TORSDOF 2
