REMARK  8 active torsions:
REMARK  status: ('A' for Active; 'I' for Inactive)
REMARK    1  A    between atoms: C_6  and  C_7 
REMARK    2  A    between atoms: C_10  and  S_11 
REMARK    3  A    between atoms: S_11  and  C_12 
REMARK    4  A    between atoms: C_12  and  C_13 
REMARK    5  A    between atoms: C_13  and  C_14 
REMARK    6  A    between atoms: C_14  and  N_15 
REMARK    7  A    between atoms: C_20  and  C_21 
REMARK    8  A    between atoms: C_24  and  C_25 
ROOT
ATOM      1  N   UNL d   1      10.637   4.679 -14.944  0.00  0.00     0.137 N 
ATOM      2  C   UNL d   1      10.313   3.266 -14.860  0.00  0.00     0.250 C 
ATOM      3  C   UNL d   1       8.939   3.274 -14.156  0.00  0.00     0.038 C 
ATOM      4  C   UNL d   1       8.916   4.551 -13.357  0.00  0.00     0.037 A 
ATOM      5  C   UNL d   1       7.637   5.355 -13.222  0.00  0.00     0.007 A 
ATOM      6  C   UNL d   1       8.246   4.699 -12.001  0.00  0.00     0.024 A 
ATOM      7  C   UNL d   1      10.256   5.184 -13.643  0.00  0.00     0.251 C 
ENDROOT
BRANCH   1   8
ATOM      8  C   UNL d   1      12.038   4.959 -15.204  0.00  0.00     0.251 C 
BRANCH   8   9
ATOM      9  C   UNL d   1      12.410   4.563 -16.636  0.00  0.00     0.047 C 
BRANCH   9  10
ATOM     10  C   UNL d   1      13.867   4.904 -16.954  0.00  0.00     0.067 C 
BRANCH  10  11
ATOM     11  S   UNL d   1      14.068   6.600 -17.544  0.00  0.00    -0.075 SA
BRANCH  11  12
ATOM     12  C   UNL d   1      15.826   6.637 -17.594  0.00  0.00     0.193 A 
ATOM     13  N   UNL d   1      16.606   5.990 -16.730  0.00  0.00    -0.122 NA
ATOM     14  N   UNL d   1      17.891   6.327 -17.071  0.00  0.00    -0.126 NA
ATOM     15  C   UNL d   1      17.796   7.162 -18.107  0.00  0.00     0.191 A 
ATOM     16  N   UNL d   1      16.515   7.390 -18.485  0.00  0.00    -0.287 N 
ATOM     17  C   UNL d   1      15.997   8.249 -19.543  0.00  0.00     0.134 C 
BRANCH  15  18
ATOM     18  C   UNL d   1      18.995   7.705 -18.734  0.00  0.00     0.151 A 
ATOM     19  C   UNL d   1      19.410   8.974 -19.049  0.00  0.00     0.087 A 
ATOM     20  C   UNL d   1      18.745  10.308 -18.850  0.00  0.00     0.054 C 
ATOM     21  N   UNL d   1      20.669   8.877 -19.638  0.00  0.00    -0.221 NA
ATOM     22  C   UNL d   1      20.947   7.576 -19.642  0.00  0.00     0.225 A 
ATOM     23  O   UNL d   1      19.970   6.811 -19.093  0.00  0.00    -0.282 OA
ENDBRANCH  15  18
ENDBRANCH  11  12
ENDBRANCH  10  11
ENDBRANCH   9  10
ENDBRANCH   8   9
ENDBRANCH   1   8
BRANCH   6  24
ATOM     24  C   UNL d   1       8.900   5.504 -10.902  0.00  0.00    -0.022 A 
ATOM     25  C   UNL d   1       9.411   6.808 -11.172  0.00  0.00    -0.004 A 
ATOM     26  C   UNL d   1      10.072   7.530 -10.178  0.00  0.00     0.004 A 
ATOM     27  C   UNL d   1      10.214   7.010  -8.880  0.00  0.00     0.071 A 
ATOM     28  C   UNL d   1       9.677   5.730  -8.589  0.00  0.00     0.004 A 
ATOM     29  C   UNL d   1       9.037   4.985  -9.599  0.00  0.00    -0.004 A 
BRANCH  27  30
ATOM     30  C   UNL d   1      10.911   7.840  -7.823  0.00  0.00     0.419 C 
ATOM     31  F   UNL d   1      11.260   7.089  -6.778  0.00  0.00    -0.166 F 
ATOM     32  F   UNL d   1      12.011   8.399  -8.330  0.00  0.00    -0.166 F 
ATOM     33  F   UNL d   1      10.088   8.807  -7.414  0.00  0.00    -0.166 F 
ENDBRANCH  27  30
ENDBRANCH   6  24
TORSDOF 8
