REMARK  7 active torsions:
REMARK  status: ('A' for Active; 'I' for Inactive)
REMARK    1  A    between atoms: O_2  and  C_3 
REMARK    2  A    between atoms: C_3  and  C_4 
REMARK       I    between atoms: C_4  and  N_6 
REMARK    3  A    between atoms: N_6  and  C_7 
REMARK    4  A    between atoms: C_10  and  C_11 
REMARK    5  A    between atoms: C_11  and  C_12 
REMARK    6  A    between atoms: C_12  and  N_13 
REMARK    7  A    between atoms: N_16  and  C_17 
ROOT
ATOM      1  C   UNL d   1      10.027   3.306 -13.896  0.00  0.00     0.250 C 
ENDROOT
BRANCH   1   2
ATOM      2  C   UNL d   1       8.490   3.162 -13.884  0.00  0.00     0.035 C 
BRANCH   2   3
ATOM      3  C   UNL d   1       7.980   1.851 -14.528  0.00  0.00     0.002 C 
ATOM      4  C   UNL d   1       6.471   1.650 -14.260  0.00  0.00     0.002 C 
ATOM      5  C   UNL d   1       5.946   0.359 -14.910  0.00  0.00     0.024 C 
ATOM      6  C   UNL d   1       6.235   0.341 -16.417  0.00  0.00     0.106 C 
ATOM      7  C   UNL d   1       7.730   0.517 -16.696  0.00  0.00     0.024 C 
ATOM      8  C   UNL d   1       8.246   1.796 -16.055  0.00  0.00     0.002 C 
BRANCH   6   9
ATOM      9  N   UNL d   1       5.779  -0.922 -16.980  0.00  0.00    -0.238 NA
ATOM     10  C   UNL d   1       5.070  -1.060 -18.108  0.00  0.00     0.276 C 
ATOM     11  O   UNL d   1       4.640  -0.100 -18.746  0.00  0.00    -0.268 OA
BRANCH  10  12
ATOM     12  C   UNL d   1       4.873  -2.480 -18.545  0.00  0.00     0.165 A 
ATOM     13  C   UNL d   1       3.465  -2.995 -18.749  0.00  0.00     0.039 A 
ATOM     14  C   UNL d   1       4.373  -2.781 -19.942  0.00  0.00     0.039 A 
BRANCH  12  15
ATOM     15  O   UNL d   1       5.810  -3.423 -18.015  0.00  0.00    -0.347 OA
ATOM     16  C   UNL d   1       7.144  -3.295 -18.500  0.00  0.00     0.175 C 
ENDBRANCH  12  15
ENDBRANCH  10  12
ENDBRANCH   6   9
ENDBRANCH   2   3
ENDBRANCH   1   2
BRANCH   1  17
ATOM     17  N   UNL d   1      10.554   3.627 -15.219  0.00  0.00     0.141 N 
ATOM     18  C   UNL d   1      11.998   3.393 -15.289  0.00  0.00     0.274 C 
ATOM     19  C   UNL d   1      12.501   3.594 -16.726  0.00  0.00     0.137 C 
ATOM     20  N   UNL d   1      12.139   4.926 -17.212  0.00  0.00    -0.343 N 
ATOM     21  C   UNL d   1      10.719   5.256 -17.069  0.00  0.00     0.137 C 
ATOM     22  C   UNL d   1      10.252   5.000 -15.631  0.00  0.00     0.274 C 
BRANCH  20  23
ATOM     23  C   UNL d   1      13.079   5.852 -17.653  0.00  0.00     0.081 A 
ATOM     24  C   UNL d   1      12.795   6.845 -18.630  0.00  0.00     0.135 A 
ATOM     25  C   UNL d   1      13.752   7.724 -19.094  0.00  0.00     0.121 A 
ATOM     26  O   UNL d   1      11.621   7.086 -19.290  0.00  0.00    -0.298 OA
ATOM     27  C   UNL d   1      15.074   7.696 -18.620  0.00  0.00     0.026 A 
ATOM     28  O   UNL d   1      13.222   8.538 -20.039  0.00  0.00    -0.299 OA
ATOM     29  C   UNL d   1      15.401   6.733 -17.642  0.00  0.00     0.004 A 
ATOM     30  C   UNL d   1      14.423   5.833 -17.162  0.00  0.00     0.019 A 
ATOM     31  C   UNL d   1      11.879   8.155 -20.167  0.00  0.00     0.304 A 
ENDBRANCH  20  23
ENDBRANCH   1  17
TORSDOF 7
