REMARK  4 active torsions:
REMARK  status: ('A' for Active; 'I' for Inactive)
REMARK    1  A    between atoms: C_8  and  C_9 
REMARK    2  A    between atoms: C_9  and  C_10 
REMARK    3  A    between atoms: C_10  and  N_11 
REMARK    4  A    between atoms: N_14  and  C_15 
ROOT
ATOM      1  N   UNL d   1       8.862   5.188 -11.811  0.00  0.00     0.141 N 
ATOM      2  C   UNL d   1       7.481   4.772 -11.543  0.00  0.00     0.274 C 
ATOM      3  C   UNL d   1       6.731   4.459 -12.842  0.00  0.00     0.137 C 
ATOM      4  N   UNL d   1       7.467   3.486 -13.648  0.00  0.00    -0.343 N 
ATOM      5  C   UNL d   1       8.884   3.797 -13.851  0.00  0.00     0.137 C 
ATOM      6  C   UNL d   1       9.571   4.114 -12.507  0.00  0.00     0.274 C 
ENDROOT
BRANCH   1   7
ATOM      7  C   UNL d   1       9.556   5.482 -10.555  0.00  0.00     0.255 C 
BRANCH   7   8
ATOM      8  C   UNL d   1       8.974   6.705  -9.885  0.00  0.00     0.068 C 
BRANCH   8   9
ATOM      9  C   UNL d   1       9.886   7.325  -8.837  0.00  0.00     0.050 A 
ATOM     10  C   UNL d   1      10.802   8.274  -9.110  0.00  0.00     0.061 A 
ATOM     11  C   UNL d   1      10.976   8.814 -10.488  0.00  0.00     0.052 C 
ATOM     12  N   UNL d   1      11.610   8.819  -8.123  0.00  0.00    -0.234 NA
ATOM     13  C   UNL d   1      11.469   8.433  -6.905  0.00  0.00     0.153 A 
ATOM     14  C   UNL d   1      12.312   9.093  -5.818  0.00  0.00     0.208 C 
ATOM     15  N   UNL d   1      10.539   7.446  -6.530  0.00  0.00    -0.283 N 
ATOM     16  C   UNL d   1      12.448   8.379  -4.447  0.00  0.00     0.043 C 
ATOM     17  O   UNL d   1      11.786  10.386  -5.635  0.00  0.00    -0.215 OA
ATOM     18  C   UNL d   1      11.086   7.935  -4.086  0.00  0.00     0.028 C 
ATOM     19  C   UNL d   1      10.520   6.962  -5.145  0.00  0.00     0.111 C 
ATOM     20  C   UNL d   1       9.714   6.875  -7.462  0.00  0.00     0.259 A 
ATOM     21  O   UNL d   1       8.889   6.008  -7.185  0.00  0.00    -0.267 OA
ENDBRANCH   8   9
ENDBRANCH   7   8
ENDBRANCH   1   7
BRANCH   4  22
ATOM     22  C   UNL d   1       6.886   2.308 -14.113  0.00  0.00     0.081 A 
ATOM     23  C   UNL d   1       7.279   1.705 -15.327  0.00  0.00     0.140 A 
ATOM     24  C   UNL d   1       6.689   0.549 -15.809  0.00  0.00     0.126 A 
ATOM     25  O   UNL d   1       8.197   2.140 -16.224  0.00  0.00    -0.253 OA
ATOM     26  C   UNL d   1       5.677  -0.114 -15.102  0.00  0.00     0.027 A 
ATOM     27  O   UNL d   1       7.231   0.239 -17.009  0.00  0.00    -0.255 OA
ATOM     28  C   UNL d   1       5.268   0.440 -13.873  0.00  0.00     0.004 A 
ATOM     29  C   UNL d   1       5.856   1.638 -13.388  0.00  0.00     0.019 A 
ATOM     30  C   UNL d   1       8.193   1.225 -17.281  0.00  0.00     0.498 A 
ATOM     31  F   UNL d   1       7.901   1.865 -18.413  0.00  0.00    -0.147 F 
ATOM     32  F   UNL d   1       9.399   0.674 -17.407  0.00  0.00    -0.147 F 
ENDBRANCH   4  22
TORSDOF 4
