REMARK  4 active torsions:
REMARK  status: ('A' for Active; 'I' for Inactive)
REMARK    1  A    between atoms: C_3  and  S_4 
REMARK    2  A    between atoms: S_4  and  N_7 
REMARK    3  A    between atoms: N_7  and  C_8 
REMARK    4  A    between atoms: C_15  and  N_16 
ROOT
ATOM      1  C   UNL d   1       7.092   4.575 -12.301  0.00  0.00     0.094 A 
ATOM      2  C   UNL d   1       5.836   4.000 -12.053  0.00  0.00     0.021 A 
ATOM      3  C   UNL d   1       5.430   2.861 -12.778  0.00  0.00     0.021 A 
ATOM      4  C   UNL d   1       6.258   2.265 -13.762  0.00  0.00     0.083 A 
ATOM      5  N   UNL d   1       5.859   1.145 -14.393  0.00  0.00    -0.244 NA
ATOM      6  C   UNL d   1       6.674   0.592 -15.311  0.00  0.00     0.100 A 
ATOM      7  C   UNL d   1       7.947   1.092 -15.615  0.00  0.00     0.038 A 
ATOM      8  C   UNL d   1       8.402   2.248 -14.960  0.00  0.00     0.059 A 
ATOM      9  C   UNL d   1       7.519   2.853 -14.027  0.00  0.00     0.035 A 
ATOM     10  C   UNL d   1       7.915   3.960 -13.266  0.00  0.00     0.023 A 
ENDROOT
BRANCH   1  11
ATOM     11  N   UNL d   1       7.501   5.699 -11.569  0.00  0.00    -0.158 NA
BRANCH  11  12
ATOM     12  S   UNL d   1       8.816   6.807 -11.837  0.00  0.00     0.291 S 
ATOM     13  O   UNL d   1       8.235   8.037 -12.393  0.00  0.00    -0.198 OA
ATOM     14  O   UNL d   1       9.857   6.065 -12.564  0.00  0.00    -0.198 OA
BRANCH  12  15
ATOM     15  C   UNL d   1       9.525   7.195 -10.253  0.00  0.00     0.131 A 
ATOM     16  C   UNL d   1       9.642   6.351  -9.173  0.00  0.00    -0.003 A 
ATOM     17  C   UNL d   1       9.179   4.922  -9.150  0.00  0.00     0.032 C 
ATOM     18  C   UNL d   1      10.237   7.051  -8.050  0.00  0.00     0.004 A 
ATOM     19  C   UNL d   1      10.598   8.396  -8.355  0.00  0.00     0.030 A 
ATOM     20  C   UNL d   1      10.519   6.622  -6.738  0.00  0.00     0.012 A 
ATOM     21  S   UNL d   1      10.199   8.782 -10.011  0.00  0.00    -0.074 SA
ATOM     22  C   UNL d   1      11.194   9.238  -7.400  0.00  0.00     0.007 A 
ATOM     23  C   UNL d   1      11.455   8.769  -6.106  0.00  0.00     0.012 A 
ATOM     24  C   UNL d   1      11.115   7.452  -5.775  0.00  0.00     0.058 A 
ATOM     25 CL   UNL d   1      11.474   6.831  -4.210  0.00  0.00    -0.082 Cl
ENDBRANCH  12  15
ENDBRANCH  11  12
ENDBRANCH   1  11
BRANCH   8  26
ATOM     26  N   UNL d   1       9.693   2.743 -15.245  0.00  0.00    -0.344 N 
ATOM     27  C   UNL d   1      10.876   1.891 -15.200  0.00  0.00     0.140 C 
ATOM     28  C   UNL d   1      11.675   2.062 -16.508  0.00  0.00     0.314 C 
ATOM     29  N   UNL d   1      11.997   3.473 -16.743  0.00  0.00     0.343 N 
ATOM     30  C   UNL d   1      10.761   4.244 -16.873  0.00  0.00     0.314 C 
ATOM     31  C   UNL d   1       9.951   4.143 -15.577  0.00  0.00     0.140 C 
ENDBRANCH   8  26
TORSDOF 4
