REMARK  3 active torsions:
REMARK  status: ('A' for Active; 'I' for Inactive)
REMARK    1  A    between atoms: C_5  and  N_6 
REMARK    2  A    between atoms: N_9  and  C_10 
REMARK    3  A    between atoms: C_10  and  C_11 
ROOT
ATOM      1  N   UNL d   1       6.989   2.451 -14.399  0.00  0.00    -0.343 N 
ATOM      2  C   UNL d   1       8.381   2.607 -14.794  0.00  0.00     0.137 C 
ATOM      3  C   UNL d   1       9.208   3.034 -13.581  0.00  0.00     0.275 C 
ATOM      4  N   UNL d   1       8.648   4.251 -12.978  0.00  0.00     0.145 N 
ATOM      5  C   UNL d   1       7.253   4.055 -12.545  0.00  0.00     0.275 C 
ATOM      6  C   UNL d   1       6.386   3.604 -13.733  0.00  0.00     0.137 C 
ENDROOT
BRANCH   1   7
ATOM      7  C   UNL d   1       6.262   1.288 -14.700  0.00  0.00     0.081 A 
ATOM      8  C   UNL d   1       6.354   0.681 -15.979  0.00  0.00     0.132 A 
ATOM      9  C   UNL d   1       5.579  -0.472 -16.272  0.00  0.00     0.118 A 
ATOM     10  O   UNL d   1       7.147   1.262 -16.951  0.00  0.00    -0.325 OA
ATOM     11  C   UNL d   1       4.688  -0.978 -15.312  0.00  0.00     0.026 A 
ATOM     12  O   UNL d   1       5.647  -1.085 -17.502  0.00  0.00    -0.326 OA
ATOM     13  C   UNL d   1       4.571  -0.358 -14.059  0.00  0.00     0.004 A 
ATOM     14  C   UNL d   1       5.377   0.751 -13.739  0.00  0.00     0.019 A 
ATOM     15  C   UNL d   1       6.780  -0.718 -18.275  0.00  0.00     0.181 C 
ATOM     16  C   UNL d   1       6.913   0.809 -18.273  0.00  0.00     0.182 C 
ENDBRANCH   1   7
BRANCH   4  17
ATOM     17  C   UNL d   1       9.457   4.623 -11.828  0.00  0.00     0.279 C 
BRANCH  17  18
ATOM     18  C   UNL d   1       9.461   6.035 -11.371  0.00  0.00     0.032 A 
ATOM     19  C   UNL d   1       9.852   6.554 -10.083  0.00  0.00     0.017 A 
ATOM     20  C   UNL d   1       9.850   7.971 -10.166  0.00  0.00     0.081 A 
ATOM     21  C   UNL d   1      10.224   5.986  -8.842  0.00  0.00     0.001 A 
ATOM     22  N   UNL d   1       9.452   8.272 -11.451  0.00  0.00    -0.244 NA
ATOM     23  C   UNL d   1      10.166   8.787  -9.072  0.00  0.00     0.019 A 
ATOM     24  C   UNL d   1       9.201   7.114 -12.165  0.00  0.00     0.097 A 
ATOM     25  C   UNL d   1      10.499   8.193  -7.837  0.00  0.00     0.002 A 
ATOM     26  C   UNL d   1      10.545   6.791  -7.730  0.00  0.00     0.000 A 
ENDBRANCH  17  18
ENDBRANCH   4  17
TORSDOF 3
