REMARK  9 active torsions:
REMARK  status: ('A' for Active; 'I' for Inactive)
REMARK    1  A    between atoms: C_2  and  C_5 
REMARK    2  A    between atoms: C_7  and  N_8 
REMARK    3  A    between atoms: N_11  and  C_12 
REMARK    4  A    between atoms: C_12  and  C_13 
REMARK    5  A    between atoms: C_13  and  C_14 
REMARK    6  A    between atoms: C_14  and  C_15 
REMARK    7  A    between atoms: C_15  and  N_16 
REMARK    8  A    between atoms: C_19  and  C_20 
REMARK    9  A    between atoms: C_30  and  C_31 
ROOT
ATOM      1  N   UNL d   1       9.192   0.632 -17.943  0.00  0.00    -0.330 N 
ATOM      2  C   UNL d   1       9.760  -0.248 -16.929  0.00  0.00     0.138 C 
ATOM      3  C   UNL d   1       9.948   0.492 -15.586  0.00  0.00     0.274 C 
ATOM      4  N   UNL d   1      10.727   1.715 -15.790  0.00  0.00     0.141 N 
ATOM      5  C   UNL d   1      10.067   2.583 -16.775  0.00  0.00     0.274 C 
ATOM      6  C   UNL d   1       9.899   1.894 -18.137  0.00  0.00     0.138 C 
ENDROOT
BRANCH   4   7
ATOM      7  C   UNL d   1      10.974   2.399 -14.506  0.00  0.00     0.251 C 
BRANCH   7   8
ATOM      8  C   UNL d   1       9.815   3.313 -14.042  0.00  0.00     0.037 C 
BRANCH   8   9
ATOM      9  C   UNL d   1      10.065   4.009 -12.714  0.00  0.00     0.027 C 
BRANCH   9  10
ATOM     10  C   UNL d   1       8.875   4.919 -12.355  0.00  0.00     0.111 C 
BRANCH  10  11
ATOM     11  N   UNL d   1       9.171   5.746 -11.182  0.00  0.00    -0.279 N 
ATOM     12  C   UNL d   1       9.455   7.087 -11.266  0.00  0.00     0.350 A 
ATOM     13  N   UNL d   1       9.864   7.756 -10.106  0.00  0.00    -0.188 NA
ATOM     14  O   UNL d   1       9.378   7.680 -12.341  0.00  0.00    -0.244 OA
ATOM     15  C   UNL d   1       9.855   7.172  -8.959  0.00  0.00     0.159 A 
ATOM     16  C   UNL d   1       9.514   5.748  -8.819  0.00  0.00     0.042 A 
ATOM     17  C   UNL d   1       9.199   5.094  -9.944  0.00  0.00     0.081 A 
BRANCH  15  18
ATOM     18  C   UNL d   1      10.156   7.962  -7.692  0.00  0.00     0.435 C 
ATOM     19  F   UNL d   1      10.190   7.190  -6.601  0.00  0.00    -0.165 F 
ATOM     20  F   UNL d   1      11.332   8.581  -7.800  0.00  0.00    -0.165 F 
ATOM     21  F   UNL d   1       9.214   8.885  -7.503  0.00  0.00    -0.165 F 
ENDBRANCH  15  18
ENDBRANCH  10  11
ENDBRANCH   9  10
ENDBRANCH   8   9
ENDBRANCH   7   8
ENDBRANCH   4   7
BRANCH   1  22
ATOM     22  C   UNL d   1       7.990   0.344 -18.594  0.00  0.00     0.143 A 
ATOM     23  N   UNL d   1       7.086  -0.441 -17.962  0.00  0.00    -0.214 NA
ATOM     24  C   UNL d   1       5.941  -0.731 -18.591  0.00  0.00     0.140 A 
ATOM     25  N   UNL d   1       5.648  -0.361 -19.843  0.00  0.00    -0.227 NA
ATOM     26  C   UNL d   1       6.536   0.413 -20.506  0.00  0.00     0.157 A 
ATOM     27  C   UNL d   1       7.737   0.825 -19.892  0.00  0.00     0.060 A 
BRANCH  24  28
ATOM     28  C   UNL d   1       4.994  -1.728 -17.899  0.00  0.00     0.052 C 
ATOM     29  C   UNL d   1       3.570  -1.639 -18.503  0.00  0.00     0.008 C 
ATOM     30  C   UNL d   1       4.868  -1.411 -16.392  0.00  0.00     0.008 C 
ATOM     31  C   UNL d   1       5.521  -3.162 -18.068  0.00  0.00     0.008 C 
ENDBRANCH  24  28
BRANCH  26  32
ATOM     32  C   UNL d   1       6.165   0.809 -21.929  0.00  0.00     0.435 C 
ATOM     33  F   UNL d   1       5.935  -0.280 -22.663  0.00  0.00    -0.165 F 
ATOM     34  F   UNL d   1       5.068   1.563 -21.906  0.00  0.00    -0.165 F 
ATOM     35  F   UNL d   1       7.134   1.507 -22.519  0.00  0.00    -0.165 F 
ENDBRANCH  26  32
ENDBRANCH   1  22
TORSDOF 9
