REMARK  7 active torsions:
REMARK  status: ('A' for Active; 'I' for Inactive)
REMARK    1  A    between atoms: C_8  and  O_9 
REMARK    2  A    between atoms: O_9  and  C_10 
REMARK    3  A    between atoms: C_10  and  C_11 
REMARK    4  A    between atoms: C_11  and  C_12 
REMARK    5  A    between atoms: C_12  and  C_13 
REMARK    6  A    between atoms: C_13  and  N_14 
REMARK    7  A    between atoms: N_17  and  C_18 
ROOT
ATOM      1  C   UNL d   1       9.336   7.032 -11.223  0.00  0.00     0.038 C 
ENDROOT
BRANCH   1   2
ATOM      2  C   UNL d   1      10.341   7.540 -10.185  0.00  0.00     0.035 C 
BRANCH   2   3
ATOM      3  C   UNL d   1       9.918   8.896  -9.553  0.00  0.00     0.151 C 
BRANCH   3   4
ATOM      4  O   UNL d   1      10.876   9.467  -8.644  0.00  0.00    -0.315 OA
BRANCH   4   5
ATOM      5  C   UNL d   1      11.053   8.834  -7.440  0.00  0.00     0.180 A 
ATOM      6  N   UNL d   1      10.677   7.555  -7.389  0.00  0.00    -0.221 NA
ATOM      7  C   UNL d   1      10.862   6.846  -6.309  0.00  0.00     0.103 A 
ATOM      8  C   UNL d   1      11.403   7.400  -5.142  0.00  0.00     0.037 A 
ATOM      9  C   UNL d   1      11.575   6.630  -3.934  0.00  0.00     0.008 A 
ATOM     10  C   UNL d   1      11.779   8.751  -5.136  0.00  0.00     0.090 A 
ATOM     11  C   UNL d   1      12.057   7.177  -2.811  0.00  0.00     0.063 A 
ATOM     12  C   UNL d   1      12.415   8.592  -2.768  0.00  0.00     0.279 A 
ATOM     13  O   UNL d   1      12.789   9.119  -1.728  0.00  0.00    -0.265 OA
ATOM     14  N   UNL d   1      12.293   9.295  -3.927  0.00  0.00    -0.208 NA
ATOM     15  C   UNL d   1      11.629   9.508  -6.316  0.00  0.00     0.064 A 
ENDBRANCH   4   5
ENDBRANCH   3   4
ENDBRANCH   2   3
ENDBRANCH   1   2
BRANCH   1  16
ATOM     16  C   UNL d   1       9.682   5.576 -11.578  0.00  0.00     0.251 C 
BRANCH  16  17
ATOM     17  N   UNL d   1       8.823   5.076 -12.633  0.00  0.00     0.141 N 
ATOM     18  C   UNL d   1       9.454   3.857 -13.151  0.00  0.00     0.274 C 
ATOM     19  C   UNL d   1       8.624   3.338 -14.322  0.00  0.00     0.137 C 
ATOM     20  N   UNL d   1       7.241   3.149 -13.918  0.00  0.00    -0.344 N 
ATOM     21  C   UNL d   1       6.607   4.262 -13.227  0.00  0.00     0.137 C 
ATOM     22  C   UNL d   1       7.496   4.764 -12.091  0.00  0.00     0.274 C 
BRANCH  20  23
ATOM     23  C   UNL d   1       6.563   1.934 -14.130  0.00  0.00     0.068 A 
ATOM     24  C   UNL d   1       6.643   1.209 -15.348  0.00  0.00     0.084 A 
ATOM     25  C   UNL d   1       5.924  -0.000 -15.500  0.00  0.00     0.070 A 
ATOM     26 CL   UNL d   1       7.486   1.797 -16.740  0.00  0.00    -0.080 Cl
ATOM     27  C   UNL d   1       5.138  -0.495 -14.450  0.00  0.00     0.012 A 
ATOM     28 CL   UNL d   1       5.931  -0.837 -17.007  0.00  0.00    -0.081 Cl
ATOM     29  C   UNL d   1       5.051   0.236 -13.260  0.00  0.00     0.002 A 
ATOM     30  C   UNL d   1       5.751   1.438 -13.095  0.00  0.00     0.018 A 
ENDBRANCH  20  23
ENDBRANCH  16  17
ENDBRANCH   1  16
TORSDOF 7
