REMARK  7 active torsions:
REMARK  status: ('A' for Active; 'I' for Inactive)
REMARK    1  A    between atoms: C_5  and  C_6 
REMARK    2  A    between atoms: C_10  and  C_11 
REMARK       I    between atoms: C_11  and  N_13 
REMARK    3  A    between atoms: N_13  and  C_14 
REMARK    4  A    between atoms: C_17  and  C_18 
REMARK    5  A    between atoms: C_18  and  C_19 
REMARK    6  A    between atoms: C_19  and  N_20 
REMARK    7  A    between atoms: C_26  and  S_27 
ROOT
ATOM      1  C   UNL d   1      11.065   4.201 -16.062  0.00  0.00     0.107 C 
ATOM      2  C   UNL d   1      11.339   3.153 -14.978  0.00  0.00     0.024 C 
ATOM      3  C   UNL d   1      10.117   2.945 -14.076  0.00  0.00     0.002 C 
ATOM      4  C   UNL d   1       9.680   4.254 -13.426  0.00  0.00     0.002 C 
ATOM      5  C   UNL d   1       9.378   5.254 -14.513  0.00  0.00     0.002 C 
ATOM      6  C   UNL d   1      10.602   5.514 -15.433  0.00  0.00     0.024 C 
ENDROOT
BRANCH   4   7
ATOM      7  C   UNL d   1       8.472   4.064 -12.502  0.00  0.00     0.035 C 
BRANCH   7   8
ATOM      8  C   UNL d   1       8.069   5.294 -11.667  0.00  0.00     0.250 C 
BRANCH   8   9
ATOM      9  N   UNL d   1       9.145   5.578 -10.717  0.00  0.00     0.138 N 
ATOM     10  C   UNL d   1       9.415   7.044 -10.716  0.00  0.00     0.255 C 
ATOM     11  C   UNL d   1      10.716   7.496 -10.028  0.00  0.00     0.061 C 
ATOM     12  C   UNL d   1      10.633   7.553  -8.516  0.00  0.00    -0.023 A 
ATOM     13  C   UNL d   1      10.237   6.421  -7.755  0.00  0.00    -0.024 A 
ATOM     14  C   UNL d   1      11.009   8.719  -7.833  0.00  0.00     0.006 A 
ATOM     15  C   UNL d   1       9.837   5.096  -8.432  0.00  0.00     0.061 C 
ATOM     16  C   UNL d   1      10.300   6.516  -6.359  0.00  0.00    -0.004 A 
ATOM     17  C   UNL d   1       8.671   5.168  -9.405  0.00  0.00     0.255 C 
ATOM     18  C   UNL d   1      10.675   7.657  -5.665  0.00  0.00     0.011 A 
ATOM     19  C   UNL d   1      11.018   8.770  -6.426  0.00  0.00     0.084 A 
BRANCH  19  20
ATOM     20  S   UNL d   1      11.573  10.168  -5.513  0.00  0.00     0.191 S 
ATOM     21  C   UNL d   1      13.146   9.581  -4.731  0.00  0.00     0.145 C 
ATOM     22  O   UNL d   1      11.896  11.195  -6.506  0.00  0.00    -0.222 OA
ATOM     23  O   UNL d   1      10.576  10.428  -4.492  0.00  0.00    -0.222 OA
ENDBRANCH  19  20
ENDBRANCH   8   9
ENDBRANCH   7   8
ENDBRANCH   4   7
BRANCH   1  24
ATOM     24  N   UNL d   1      12.257   4.444 -16.864  0.00  0.00    -0.236 NA
ATOM     25  C   UNL d   1      12.687   3.631 -17.840  0.00  0.00     0.275 C 
ATOM     26  O   UNL d   1      12.237   2.501 -18.038  0.00  0.00    -0.266 OA
BRANCH  25  27
ATOM     27  C   UNL d   1      13.686   4.234 -18.780  0.00  0.00     0.058 A 
ATOM     28  C   UNL d   1      13.639   3.895 -20.150  0.00  0.00     0.005 A 
ATOM     29  C   UNL d   1      14.560   4.450 -21.055  0.00  0.00     0.000 A 
ATOM     30  C   UNL d   1      15.536   5.347 -20.600  0.00  0.00     0.004 A 
ATOM     31  C   UNL d   1      15.602   5.686 -19.239  0.00  0.00     0.041 A 
ATOM     32  C   UNL d   1      14.677   5.133 -18.323  0.00  0.00     0.008 A 
BRANCH  31  33
ATOM     33  C   UNL d   1      16.654   6.577 -18.797  0.00  0.00     0.182 A 
ATOM     34  N   UNL d   1      17.056   6.766 -17.552  0.00  0.00    -0.219 NA
ATOM     35  C   UNL d   1      18.029   7.749 -17.660  0.00  0.00     0.121 A 
ATOM     36  C   UNL d   1      18.267   7.997 -18.980  0.00  0.00     0.099 A 
ATOM     37  C   UNL d   1      19.256   8.880 -19.646  0.00  0.00     0.060 C 
ATOM     38  O   UNL d   1      17.387   7.265 -19.727  0.00  0.00    -0.292 OA
ENDBRANCH  31  33
ENDBRANCH  25  27
ENDBRANCH   1  24
TORSDOF 7
