REMARK  8 active torsions:
REMARK  status: ('A' for Active; 'I' for Inactive)
REMARK    1  A    between atoms: C_2  and  C_4 
REMARK    2  A    between atoms: C_9  and  O_10 
REMARK    3  A    between atoms: O_10  and  C_11 
REMARK    4  A    between atoms: C_11  and  C_12 
REMARK    5  A    between atoms: C_12  and  N_13 
REMARK    6  A    between atoms: C_16  and  N_17 
REMARK    7  A    between atoms: N_17  and  S_18 
REMARK    8  A    between atoms: S_18  and  C_21 
ROOT
ATOM      1  N   UNL d   1       8.818   5.941  -8.043  0.00  0.00     0.142 N 
ATOM      2  C   UNL d   1       8.984   4.534  -8.386  0.00  0.00     0.253 C 
ATOM      3  C   UNL d   1       8.581   4.501  -9.809  0.00  0.00     0.063 C 
ATOM      4  C   UNL d   1       8.772   5.902 -10.316  0.00  0.00     0.151 C 
ATOM      5  C   UNL d   1       9.330   6.679  -9.178  0.00  0.00     0.275 C 
ENDROOT
BRANCH   4   6
ATOM      6  N   UNL d   1       9.683   5.854 -11.430  0.00  0.00    -0.185 NA
BRANCH   6   7
ATOM      7  S   UNL d   1       9.051   5.827 -12.980  0.00  0.00     0.283 S 
ATOM      8  O   UNL d   1       8.234   7.043 -13.034  0.00  0.00    -0.199 OA
ATOM      9  O   UNL d   1      10.217   5.572 -13.857  0.00  0.00    -0.199 OA
BRANCH   7  10
ATOM     10  C   UNL d   1       7.866   4.486 -13.103  0.00  0.00     0.122 C 
ATOM     11  C   UNL d   1       7.975   3.469 -14.073  0.00  0.00     0.094 A 
ATOM     12  C   UNL d   1       6.988   2.454 -14.061  0.00  0.00     0.018 A 
ATOM     13  N   UNL d   1       8.969   3.469 -15.014  0.00  0.00    -0.243 NA
ATOM     14  C   UNL d   1       5.924   2.446 -13.121  0.00  0.00     0.002 C 
ATOM     15  C   UNL d   1       7.080   1.397 -14.993  0.00  0.00     0.003 A 
ATOM     16  C   UNL d   1       5.834   3.490 -12.200  0.00  0.00     0.001 C 
ATOM     17  C   UNL d   1       6.750   4.531 -12.247  0.00  0.00     0.015 C 
ATOM     18  C   UNL d   1       8.108   1.425 -15.961  0.00  0.00     0.021 A 
ATOM     19  C   UNL d   1       9.019   2.487 -15.935  0.00  0.00     0.099 A 
ENDBRANCH   7  10
ENDBRANCH   6   7
ENDBRANCH   4   6
BRANCH   1  20
ATOM     20  C   UNL d   1       9.474   6.356  -6.826  0.00  0.00     0.283 C 
BRANCH  20  21
ATOM     21  C   UNL d   1      11.021   6.219  -6.889  0.00  0.00     0.184 C 
BRANCH  21  22
ATOM     22  O   UNL d   1      11.551   6.395  -5.609  0.00  0.00    -0.329 OA
BRANCH  22  23
ATOM     23  C   UNL d   1      11.497   7.663  -5.078  0.00  0.00     0.090 A 
ATOM     24  C   UNL d   1      11.620   7.749  -3.687  0.00  0.00    -0.000 A 
ATOM     25  C   UNL d   1      11.629   9.028  -3.088  0.00  0.00    -0.002 A 
ATOM     26  C   UNL d   1      11.463  10.148  -3.885  0.00  0.00    -0.000 A 
ATOM     27  C   UNL d   1      11.344  10.084  -5.273  0.00  0.00     0.002 A 
ATOM     28  C   UNL d   1      11.380   8.822  -5.884  0.00  0.00     0.024 A 
BRANCH  24  29
ATOM     29  C   UNL d   1      11.749   6.497  -2.817  0.00  0.00     0.024 C 
ATOM     30  C   UNL d   1      10.615   6.424  -1.783  0.00  0.00     0.005 C 
ATOM     31  C   UNL d   1      13.009   6.512  -2.107  0.00  0.00     0.005 C 
ENDBRANCH  24  29
ENDBRANCH  22  23
ENDBRANCH  21  22
ENDBRANCH  20  21
ENDBRANCH   1  20
TORSDOF 8
