REMARK  3 active torsions:
REMARK  status: ('A' for Active; 'I' for Inactive)
REMARK    1  A    between atoms: N_13  and  C_14 
REMARK    2  A    between atoms: N_17  and  C_18 
REMARK    3  A    between atoms: C_18  and  C_19 
ROOT
ATOM      1  C   UNL d   1       9.768   5.943 -10.399  0.00  0.00     0.094 C 
ATOM      2  C   UNL d   1       8.842   6.784 -11.257  0.00  0.00     0.058 C 
ATOM      3  C   UNL d   1       8.842   6.342 -12.726  0.00  0.00     0.253 C 
ATOM      4  N   UNL d   1       8.488   4.929 -12.807  0.00  0.00     0.141 N 
ATOM      5  C   UNL d   1       9.499   4.120 -12.156  0.00  0.00     0.253 C 
ATOM      6  C   UNL d   1       9.460   4.452 -10.664  0.00  0.00     0.058 C 
ENDROOT
BRANCH   1   7
ATOM      7  N   UNL d   1       9.773   6.331  -8.984  0.00  0.00    -0.284 N 
ATOM      8  C   UNL d   1      10.642   7.243  -8.363  0.00  0.00     0.059 A 
ATOM      9  C   UNL d   1      11.772   7.939  -9.105  0.00  0.00     0.052 C 
ATOM     10  C   UNL d   1      10.309   7.316  -7.078  0.00  0.00     0.098 A 
ATOM     11  C   UNL d   1      10.831   8.130  -6.015  0.00  0.00     0.019 A 
ATOM     12  N   UNL d   1       9.207   6.529  -6.892  0.00  0.00    -0.191 NA
ATOM     13  C   UNL d   1      10.680   9.521  -6.114  0.00  0.00     0.002 A 
ATOM     14  C   UNL d   1      11.400   7.521  -4.878  0.00  0.00     0.002 A 
ATOM     15  C   UNL d   1      11.111  10.319  -5.042  0.00  0.00     0.000 A 
ATOM     16  C   UNL d   1      11.702   9.726  -3.911  0.00  0.00     0.000 A 
ATOM     17  C   UNL d   1      11.858   8.328  -3.824  0.00  0.00     0.000 A 
ATOM     18  C   UNL d   1       8.943   5.899  -8.019  0.00  0.00     0.350 A 
ATOM     19  O   UNL d   1       8.104   5.003  -8.108  0.00  0.00    -0.244 OA
ENDBRANCH   1   7
BRANCH   4  20
ATOM     20  C   UNL d   1       8.387   4.531 -14.203  0.00  0.00     0.278 C 
BRANCH  20  21
ATOM     21  C   UNL d   1       7.932   3.107 -14.437  0.00  0.00     0.021 A 
ATOM     22  C   UNL d   1       6.661   2.635 -14.035  0.00  0.00     0.056 A 
ATOM     23  C   UNL d   1       6.301   1.291 -14.266  0.00  0.00     0.011 A 
ATOM     24 CL   UNL d   1       5.532   3.668 -13.224  0.00  0.00    -0.083 Cl
ATOM     25  C   UNL d   1       7.202   0.414 -14.902  0.00  0.00     0.001 A 
ATOM     26  C   UNL d   1       8.463   0.883 -15.316  0.00  0.00    -0.000 A 
ATOM     27  C   UNL d   1       8.825   2.224 -15.086  0.00  0.00    -0.002 A 
ENDBRANCH  20  21
ENDBRANCH   4  20
TORSDOF 3
