REMARK  7 active torsions:
REMARK  status: ('A' for Active; 'I' for Inactive)
REMARK    1  A    between atoms: O_2  and  C_3 
REMARK    2  A    between atoms: C_8  and  N_9 
REMARK    3  A    between atoms: N_12  and  C_13 
REMARK    4  A    between atoms: C_13  and  C_14 
REMARK    5  A    between atoms: C_14  and  C_15 
REMARK    6  A    between atoms: C_15  and  N_16 
REMARK       I    between atoms: N_19  and  C_20 
REMARK    7  A    between atoms: C_20  and  C_22 
ROOT
ATOM      1  C   UNL d   1       8.607   6.029 -10.779  0.00  0.00     0.071 C 
ENDROOT
BRANCH   1   2
ATOM      2  C   UNL d   1       8.599   5.823  -9.263  0.00  0.00     0.253 C 
BRANCH   2   3
ATOM      3  N   UNL d   1       9.608   6.679  -8.667  0.00  0.00     0.141 N 
ATOM      4  C   UNL d   1       8.963   7.587  -7.712  0.00  0.00     0.274 C 
ATOM      5  C   UNL d   1       9.983   8.514  -7.090  0.00  0.00     0.137 C 
ATOM      6  N   UNL d   1      11.041   7.750  -6.439  0.00  0.00    -0.343 N 
ATOM      7  C   UNL d   1      11.654   6.737  -7.278  0.00  0.00     0.137 C 
ATOM      8  C   UNL d   1      10.558   5.867  -7.921  0.00  0.00     0.274 C 
BRANCH   6   9
ATOM      9  C   UNL d   1      11.448   7.935  -5.103  0.00  0.00     0.079 A 
ATOM     10  C   UNL d   1      11.501   9.230  -4.494  0.00  0.00     0.110 A 
ATOM     11  C   UNL d   1      11.858   9.331  -3.147  0.00  0.00     0.026 A 
ATOM     12  C   UNL d   1      12.240   8.200  -2.383  0.00  0.00     0.002 A 
ATOM     13  C   UNL d   1      12.207   6.928  -3.003  0.00  0.00     0.002 A 
ATOM     14  C   UNL d   1      11.806   6.813  -4.321  0.00  0.00     0.019 A 
BRANCH  10  15
ATOM     15  O   UNL d   1      11.157  10.390  -5.165  0.00  0.00    -0.327 OA
ATOM     16  C   UNL d   1      11.963  10.738  -6.302  0.00  0.00     0.181 C 
ENDBRANCH  10  15
ENDBRANCH   6   9
ENDBRANCH   2   3
ENDBRANCH   1   2
BRANCH   1  17
ATOM     17  C   UNL d   1       7.516   5.158 -11.395  0.00  0.00     0.253 C 
BRANCH  17  18
ATOM     18  N   UNL d   1       7.366   5.380 -12.838  0.00  0.00     0.141 N 
ATOM     19  C   UNL d   1       8.568   5.103 -13.629  0.00  0.00     0.274 C 
ATOM     20  C   UNL d   1       8.962   3.616 -13.550  0.00  0.00     0.140 C 
ATOM     21  N   UNL d   1       7.829   2.776 -14.014  0.00  0.00    -0.311 N 
ATOM     22  C   UNL d   1       6.544   3.095 -13.312  0.00  0.00     0.140 C 
ATOM     23  C   UNL d   1       8.042   1.756 -14.872  0.00  0.00     0.275 C 
ATOM     24  C   UNL d   1       6.251   4.585 -13.363  0.00  0.00     0.274 C 
ATOM     25  O   UNL d   1       9.116   1.528 -15.409  0.00  0.00    -0.266 OA
BRANCH  23  26
ATOM     26  C   UNL d   1       6.862   0.860 -15.190  0.00  0.00     0.137 A 
ATOM     27  N   UNL d   1       6.532   0.750 -16.506  0.00  0.00    -0.239 NA
ATOM     28  C   UNL d   1       5.471  -0.004 -16.833  0.00  0.00     0.099 A 
ATOM     29  C   UNL d   1       4.677  -0.684 -15.891  0.00  0.00     0.021 A 
ATOM     30  C   UNL d   1       5.024  -0.574 -14.529  0.00  0.00     0.003 A 
ATOM     31  C   UNL d   1       6.146   0.186 -14.180  0.00  0.00     0.024 A 
ENDBRANCH  23  26
ENDBRANCH  17  18
ENDBRANCH   1  17
TORSDOF 7
