REMARK  12 active torsions:
REMARK  status: ('A' for Active; 'I' for Inactive)
REMARK    1  A    between atoms: N_2  and  C_4 
REMARK    2  A    between atoms: C_4  and  C_5 
REMARK    3  A    between atoms: C_5  and  C_6 
REMARK    4  A    between atoms: C_6  and  C_7 
REMARK    5  A    between atoms: C_6  and  C_28 
REMARK    6  A    between atoms: C_6  and  C_34 
REMARK       I    between atoms: C_7  and  N_9 
REMARK    7  A    between atoms: N_9  and  C_10 
REMARK    8  A    between atoms: C_10  and  C_11 
REMARK    9  A    between atoms: C_11  and  C_12 
REMARK   10  A    between atoms: C_12  and  C_13 
REMARK   11  A    between atoms: C_13  and  N_14 
REMARK   12  A    between atoms: N_17  and  C_18 
ROOT
ATOM      1  C   UNL d   1       8.811   2.132 -17.454  0.00  0.00     0.258 C 
ATOM      2  O   UNL d   1       7.675   2.159 -17.921  0.00  0.00    -0.270 OA
ATOM      3  N   UNL d   1       9.046   1.641 -16.221  0.00  0.00    -0.237 NA
ENDROOT
BRANCH   1   4
ATOM      4  C   UNL d   1      10.018   2.735 -18.251  0.00  0.00     0.112 C 
BRANCH   4   5
ATOM      5  C   UNL d   1       9.488   3.691 -19.389  0.00  0.00     0.052 C 
BRANCH   5   6
ATOM      6  C   UNL d   1       9.158   5.157 -18.978  0.00  0.00     0.252 C 
BRANCH   6   7
ATOM      7  N   UNL d   1       9.103   6.090 -20.092  0.00  0.00     0.141 N 
ATOM      8  C   UNL d   1       8.894   7.441 -19.584  0.00  0.00     0.285 C 
ATOM      9  C   UNL d   1       8.040   5.763 -21.022  0.00  0.00     0.285 C 
ENDBRANCH   6   7
ENDBRANCH   5   6
ENDBRANCH   4   5
BRANCH   4  10
ATOM     10  C   UNL d   1      10.763   1.497 -18.817  0.00  0.00    -0.011 A 
ATOM     11  C   UNL d   1      10.582   1.052 -20.152  0.00  0.00    -0.004 A 
ATOM     12  C   UNL d   1      11.276  -0.072 -20.640  0.00  0.00    -0.000 A 
ATOM     13  C   UNL d   1      12.159  -0.768 -19.797  0.00  0.00    -0.000 A 
ATOM     14  C   UNL d   1      12.314  -0.377 -18.462  0.00  0.00    -0.000 A 
ATOM     15  C   UNL d   1      11.626   0.742 -17.975  0.00  0.00    -0.004 A 
ENDBRANCH   4  10
BRANCH   4  16
ATOM     16  C   UNL d   1      10.927   3.591 -17.317  0.00  0.00    -0.011 C 
ATOM     17  C   UNL d   1      10.346   4.395 -16.316  0.00  0.00    -0.004 C 
ATOM     18  C   UNL d   1      11.112   5.146 -15.416  0.00  0.00    -0.000 C 
ATOM     19  C   UNL d   1      12.493   5.234 -15.593  0.00  0.00    -0.000 C 
ATOM     20  C   UNL d   1      13.114   4.535 -16.663  0.00  0.00    -0.000 C 
ATOM     21  C   UNL d   1      12.331   3.703 -17.510  0.00  0.00    -0.004 C 
ENDBRANCH   4  16
ENDBRANCH   1   4
BRANCH   3  22
ATOM     22  C   UNL d   1       8.072   1.659 -15.123  0.00  0.00     0.129 C 
BRANCH  22  23
ATOM     23  C   UNL d   1       8.088   3.018 -14.400  0.00  0.00     0.029 C 
BRANCH  23  24
ATOM     24  C   UNL d   1       6.818   3.337 -13.591  0.00  0.00     0.037 C 
BRANCH  24  25
ATOM     25  C   UNL d   1       6.871   4.805 -13.089  0.00  0.00     0.251 C 
BRANCH  25  26
ATOM     26  N   UNL d   1       8.080   5.218 -12.389  0.00  0.00     0.141 N 
ATOM     27  C   UNL d   1       7.997   6.638 -12.071  0.00  0.00     0.274 C 
ATOM     28  C   UNL d   1       9.259   7.054 -11.293  0.00  0.00     0.137 C 
ATOM     29  N   UNL d   1       9.493   6.202 -10.135  0.00  0.00    -0.344 N 
ATOM     30  C   UNL d   1       9.383   4.777 -10.364  0.00  0.00     0.137 C 
ATOM     31  C   UNL d   1       8.091   4.515 -11.132  0.00  0.00     0.274 C 
BRANCH  29  32
ATOM     32  C   UNL d   1       9.645   6.736  -8.844  0.00  0.00     0.068 A 
ATOM     33  C   UNL d   1      10.499   7.839  -8.584  0.00  0.00     0.084 A 
ATOM     34  C   UNL d   1      10.638   8.316  -7.256  0.00  0.00     0.070 A 
ATOM     35 CL   UNL d   1      11.464   8.599  -9.799  0.00  0.00    -0.080 Cl
ATOM     36  C   UNL d   1       9.948   7.707  -6.217  0.00  0.00     0.012 A 
ATOM     37 CL   UNL d   1      11.699   9.600  -6.830  0.00  0.00    -0.081 Cl
ATOM     38  C   UNL d   1       9.121   6.618  -6.462  0.00  0.00     0.002 A 
ATOM     39  C   UNL d   1       8.954   6.129  -7.772  0.00  0.00     0.018 A 
ENDBRANCH  29  32
ENDBRANCH  25  26
ENDBRANCH  24  25
ENDBRANCH  23  24
ENDBRANCH  22  23
ENDBRANCH   3  22
TORSDOF 12
