REMARK  8 active torsions:
REMARK  status: ('A' for Active; 'I' for Inactive)
REMARK    1  A    between atoms: O_2  and  C_3 
REMARK    2  A    between atoms: C_8  and  N_9 
REMARK    3  A    between atoms: N_13  and  C_14 
REMARK    4  A    between atoms: C_14  and  C_15 
REMARK    5  A    between atoms: C_15  and  C_16 
REMARK    6  A    between atoms: C_16  and  C_17 
REMARK    7  A    between atoms: C_17  and  N_18 
REMARK       I    between atoms: N_18  and  C_19 
REMARK    8  A    between atoms: C_19  and  C_21 
ROOT
ATOM      1  N   UNL d   1       8.013   1.213 -15.584  0.00  0.00    -0.345 N 
ATOM      2  C   UNL d   1       9.393   0.828 -15.379  0.00  0.00     0.104 C 
ATOM      3  C   UNL d   1      10.235   1.962 -14.747  0.00  0.00     0.059 C 
ATOM      4  C   UNL d   1       9.606   2.623 -13.513  0.00  0.00     0.252 C 
ATOM      5  N   UNL d   1       8.679   3.743 -13.732  0.00  0.00     0.139 N 
ATOM      6  C   UNL d   1       7.427   3.225 -14.280  0.00  0.00     0.274 C 
ATOM      7  C   UNL d   1       7.600   2.584 -15.663  0.00  0.00     0.137 C 
ENDROOT
BRANCH   5   8
ATOM      8  C   UNL d   1       8.377   4.372 -12.447  0.00  0.00     0.250 C 
BRANCH   8   9
ATOM      9  C   UNL d   1       9.411   5.450 -12.117  0.00  0.00     0.037 C 
BRANCH   9  10
ATOM     10  C   UNL d   1       9.352   5.889 -10.636  0.00  0.00     0.029 C 
BRANCH  10  11
ATOM     11  C   UNL d   1      10.355   6.997 -10.288  0.00  0.00     0.129 C 
BRANCH  11  12
ATOM     12  N   UNL d   1      10.552   7.113  -8.856  0.00  0.00    -0.234 NA
ATOM     13  C   UNL d   1      10.291   8.188  -8.121  0.00  0.00     0.275 C 
ATOM     14  O   UNL d   1       9.753   9.190  -8.583  0.00  0.00    -0.266 OA
BRANCH  13  15
ATOM     15  C   UNL d   1      10.823   8.170  -6.718  0.00  0.00     0.058 A 
ATOM     16  C   UNL d   1      11.095   9.387  -6.045  0.00  0.00     0.006 A 
ATOM     17  C   UNL d   1      11.582   9.371  -4.723  0.00  0.00     0.012 A 
ATOM     18  C   UNL d   1      11.790   8.151  -4.058  0.00  0.00     0.058 A 
ATOM     19  C   UNL d   1      11.484   6.939  -4.707  0.00  0.00     0.012 A 
ATOM     20 CL   UNL d   1      12.349   8.132  -2.431  0.00  0.00    -0.082 Cl
ATOM     21  C   UNL d   1      10.999   6.951  -6.025  0.00  0.00     0.006 A 
ENDBRANCH  13  15
ENDBRANCH  11  12
ENDBRANCH  10  11
ENDBRANCH   9  10
ENDBRANCH   8   9
ENDBRANCH   5   8
BRANCH   1  22
ATOM     22  C   UNL d   1       6.997   0.243 -15.716  0.00  0.00     0.079 A 
ATOM     23  C   UNL d   1       6.482  -0.121 -16.987  0.00  0.00     0.110 A 
ATOM     24  C   UNL d   1       5.500  -1.154 -17.054  0.00  0.00     0.026 A 
ATOM     25  C   UNL d   1       5.031  -1.772 -15.889  0.00  0.00     0.002 A 
ATOM     26  C   UNL d   1       5.519  -1.367 -14.642  0.00  0.00     0.002 A 
ATOM     27  C   UNL d   1       6.507  -0.367 -14.544  0.00  0.00     0.019 A 
BRANCH  23  28
ATOM     28  O   UNL d   1       6.992   0.524 -18.092  0.00  0.00    -0.327 OA
ATOM     29  C   UNL d   1       6.466   0.177 -19.363  0.00  0.00     0.181 C 
ENDBRANCH  23  28
ENDBRANCH   1  22
TORSDOF 8
