REMARK  5 active torsions:
REMARK  status: ('A' for Active; 'I' for Inactive)
REMARK    1  A    between atoms: N_10  and  C_11 
REMARK    2  A    between atoms: N_14  and  C_15 
REMARK    3  A    between atoms: C_15  and  C_16 
REMARK    4  A    between atoms: C_16  and  O_17 
REMARK    5  A    between atoms: O_17  and  C_18 
ROOT
ATOM      1  C   UNL d   1      10.724   7.044  -6.964  0.00  0.00     0.094 C 
ATOM      2  C   UNL d   1      11.207   7.364  -8.400  0.00  0.00     0.058 C 
ATOM      3  C   UNL d   1      10.659   6.377  -9.410  0.00  0.00     0.252 C 
ATOM      4  N   UNL d   1       9.200   6.370  -9.376  0.00  0.00     0.140 N 
ATOM      5  C   UNL d   1       8.739   5.923  -8.060  0.00  0.00     0.252 C 
ATOM      6  C   UNL d   1       9.195   6.902  -6.968  0.00  0.00     0.058 C 
ENDROOT
BRANCH   1   7
ATOM      7  N   UNL d   1      11.155   8.039  -5.970  0.00  0.00    -0.281 N 
ATOM      8  C   UNL d   1      11.258   9.379  -6.149  0.00  0.00     0.350 A 
ATOM      9  O   UNL d   1      11.050   9.993  -7.173  0.00  0.00    -0.244 OA
ATOM     10  N   UNL d   1      11.663   9.944  -5.005  0.00  0.00    -0.191 NA
ATOM     11  C   UNL d   1      11.841   8.958  -4.055  0.00  0.00     0.102 A 
ATOM     12  C   UNL d   1      11.509   7.761  -4.648  0.00  0.00     0.082 A 
ATOM     13  C   UNL d   1      12.259   9.045  -2.731  0.00  0.00     0.021 A 
ATOM     14  C   UNL d   1      11.565   6.551  -3.953  0.00  0.00     0.019 A 
ATOM     15  C   UNL d   1      11.980   6.609  -2.606  0.00  0.00     0.002 A 
ATOM     16  C   UNL d   1      12.329   7.842  -2.006  0.00  0.00     0.002 A 
ENDBRANCH   1   7
BRANCH   4  17
ATOM     17  C   UNL d   1       8.684   5.473 -10.392  0.00  0.00     0.283 C 
BRANCH  17  18
ATOM     18  C   UNL d   1       8.738   6.101 -11.804  0.00  0.00     0.184 C 
BRANCH  18  19
ATOM     19  O   UNL d   1       9.071   5.112 -12.772  0.00  0.00    -0.329 OA
BRANCH  19  20
ATOM     20  C   UNL d   1       8.114   4.194 -13.145  0.00  0.00     0.094 A 
ATOM     21  C   UNL d   1       6.771   4.210 -12.687  0.00  0.00     0.024 A 
ATOM     22  C   UNL d   1       5.854   3.242 -13.134  0.00  0.00     0.002 A 
ATOM     23  C   UNL d   1       6.261   2.247 -14.040  0.00  0.00     0.000 A 
ATOM     24  C   UNL d   1       7.591   2.218 -14.497  0.00  0.00     0.002 A 
ATOM     25  C   UNL d   1       8.512   3.185 -14.047  0.00  0.00     0.024 A 
ENDBRANCH  19  20
ENDBRANCH  18  19
ENDBRANCH  17  18
ENDBRANCH   4  17
TORSDOF 5
