REMARK  4 active torsions:
REMARK  status: ('A' for Active; 'I' for Inactive)
REMARK       I    between atoms: N_10  and  C_11 
REMARK    1  A    between atoms: C_11  and  C_13 
REMARK    2  A    between atoms: C_13  and  N_14 
REMARK    3  A    between atoms: N_17  and  C_18 
REMARK    4  A    between atoms: C_18  and  C_19 
ROOT
ATOM      1  N   UNL d   1       9.587   4.123 -14.991  0.00  0.00     0.151 N 
ATOM      2  C   UNL d   1       8.641   3.246 -14.307  0.00  0.00     0.286 C 
ATOM      3  C   UNL d   1       7.855   3.963 -13.186  0.00  0.00     0.286 C 
ATOM      4  N   UNL d   1       8.759   4.544 -12.197  0.00  0.00     0.146 N 
ATOM      5  C   UNL d   1       9.674   5.436 -12.901  0.00  0.00     0.286 C 
ATOM      6  C   UNL d   1      10.462   4.727 -13.999  0.00  0.00     0.286 C 
ENDROOT
BRANCH   1   7
ATOM      7  C   UNL d   1      10.326   3.391 -16.022  0.00  0.00     0.337 C 
BRANCH   7   8
ATOM      8  C   UNL d   1       9.706   3.563 -17.428  0.00  0.00     0.271 C 
ATOM      9  N   UNL d   1      10.097   4.585 -18.244  0.00  0.00    -0.299 N 
ATOM     10  C   UNL d   1       9.339   4.910 -19.492  0.00  0.00     0.093 C 
ATOM     11  C   UNL d   1      11.170   5.546 -18.094  0.00  0.00     0.058 A 
ATOM     12  C   UNL d   1       9.535   3.838 -20.597  0.00  0.00     0.025 C 
ATOM     13  C   UNL d   1       9.855   6.289 -19.974  0.00  0.00     0.051 C 
ATOM     14  C   UNL d   1      11.025   6.543 -19.046  0.00  0.00    -0.004 A 
ATOM     15  C   UNL d   1      11.943   7.612 -19.126  0.00  0.00    -0.003 A 
ATOM     16  C   UNL d   1      13.015   7.679 -18.184  0.00  0.00    -0.000 A 
ATOM     17  C   UNL d   1      13.156   6.630 -17.236  0.00  0.00     0.002 A 
ATOM     18  C   UNL d   1      12.279   5.534 -17.214  0.00  0.00     0.017 A 
ATOM     19  O   UNL d   1       8.834   2.742 -17.773  0.00  0.00    -0.270 OA
ENDBRANCH   7   8
ENDBRANCH   1   7
BRANCH   4  20
ATOM     20  C   UNL d   1       8.011   5.226 -11.141  0.00  0.00     0.279 C 
BRANCH  20  21
ATOM     21  C   UNL d   1       8.872   5.982 -10.143  0.00  0.00     0.041 A 
ATOM     22  C   UNL d   1       9.078   5.498  -8.833  0.00  0.00     0.139 A 
ATOM     23  C   UNL d   1       9.869   6.234  -7.931  0.00  0.00     0.043 A 
ATOM     24  F   UNL d   1       8.524   4.327  -8.447  0.00  0.00    -0.204 F 
ATOM     25  C   UNL d   1      10.475   7.446  -8.323  0.00  0.00     0.087 A 
ATOM     26  C   UNL d   1      10.268   7.939  -9.625  0.00  0.00     0.150 A 
ATOM     27 CL   UNL d   1      11.458   8.325  -7.204  0.00  0.00    -0.080 Cl
ATOM     28  C   UNL d   1       9.455   7.229 -10.502  0.00  0.00     0.030 A 
ATOM     29  F   UNL d   1      10.855   9.099 -10.018  0.00  0.00    -0.203 F 
ENDBRANCH  20  21
ENDBRANCH   4  20
TORSDOF 4
