REMARK  7 active torsions:
REMARK  status: ('A' for Active; 'I' for Inactive)
REMARK       I    between atoms: C_2  and  N_3 
REMARK    1  A    between atoms: C_2  and  C_22 
REMARK    2  A    between atoms: N_3  and  C_4 
REMARK    3  A    between atoms: C_4  and  C_5 
REMARK    4  A    between atoms: C_5  and  C_6 
REMARK    5  A    between atoms: C_6  and  C_7 
REMARK    6  A    between atoms: C_7  and  N_8 
REMARK    7  A    between atoms: N_11  and  C_12 
ROOT
ATOM      1  C   UNL d   1       9.436   6.845 -11.088  0.00  0.00     0.037 C 
ENDROOT
BRANCH   1   2
ATOM      2  C   UNL d   1       9.662   8.354 -10.874  0.00  0.00     0.029 C 
BRANCH   2   3
ATOM      3  C   UNL d   1      11.017   8.675 -10.220  0.00  0.00     0.129 C 
BRANCH   3   4
ATOM      4  N   UNL d   1      11.125   8.127  -8.869  0.00  0.00    -0.233 NA
ATOM      5  C   UNL d   1      10.463   8.593  -7.792  0.00  0.00     0.294 C 
ATOM      6  O   UNL d   1       9.525   9.377  -7.823  0.00  0.00    -0.264 OA
BRANCH   5   7
ATOM      7  C   UNL d   1      10.997   8.162  -6.477  0.00  0.00     0.158 A 
ATOM      8  N   UNL d   1      11.143   9.092  -5.509  0.00  0.00    -0.238 NA
ATOM      9  C   UNL d   1      11.603   8.679  -4.308  0.00  0.00     0.099 A 
ATOM     10  C   UNL d   1      11.889   7.293  -4.079  0.00  0.00     0.099 A 
ATOM     11  C   UNL d   1      11.775   9.592  -3.262  0.00  0.00     0.021 A 
ATOM     12  N   UNL d   1      11.735   6.383  -5.054  0.00  0.00    -0.241 NA
ATOM     13  C   UNL d   1      12.375   6.891  -2.823  0.00  0.00     0.021 A 
ATOM     14  C   UNL d   1      11.288   6.802  -6.251  0.00  0.00     0.123 A 
ATOM     15  C   UNL d   1      12.592   7.825  -1.804  0.00  0.00     0.002 A 
ATOM     16  C   UNL d   1      12.253   9.164  -2.016  0.00  0.00     0.002 A 
ENDBRANCH   5   7
ENDBRANCH   3   4
ENDBRANCH   2   3
ENDBRANCH   1   2
BRANCH   1  17
ATOM     17  C   UNL d   1       8.150   6.506 -11.864  0.00  0.00     0.251 C 
BRANCH  17  18
ATOM     18  N   UNL d   1       8.077   5.078 -12.164  0.00  0.00     0.141 N 
ATOM     19  C   UNL d   1       6.735   4.816 -12.699  0.00  0.00     0.274 C 
ATOM     20  C   UNL d   1       6.532   3.342 -13.036  0.00  0.00     0.137 C 
ATOM     21  N   UNL d   1       7.615   2.869 -13.899  0.00  0.00    -0.344 N 
ATOM     22  C   UNL d   1       8.973   3.190 -13.462  0.00  0.00     0.137 C 
ATOM     23  C   UNL d   1       9.095   4.672 -13.149  0.00  0.00     0.274 C 
BRANCH  21  24
ATOM     24  C   UNL d   1       7.402   2.076 -15.046  0.00  0.00     0.068 A 
ATOM     25  C   UNL d   1       6.449   1.017 -15.118  0.00  0.00     0.084 A 
ATOM     26  C   UNL d   1       6.228   0.359 -16.349  0.00  0.00     0.070 A 
ATOM     27 CL   UNL d   1       5.515   0.509 -13.740  0.00  0.00    -0.080 Cl
ATOM     28  C   UNL d   1       6.989   0.690 -17.480  0.00  0.00     0.012 A 
ATOM     29 CL   UNL d   1       5.006  -0.853 -16.494  0.00  0.00    -0.081 Cl
ATOM     30  C   UNL d   1       7.981   1.679 -17.397  0.00  0.00     0.002 A 
ATOM     31  C   UNL d   1       8.195   2.357 -16.186  0.00  0.00     0.018 A 
ENDBRANCH  21  24
ENDBRANCH  17  18
ENDBRANCH   1  17
TORSDOF 7
