REMARK  9 active torsions:
REMARK  status: ('A' for Active; 'I' for Inactive)
REMARK    1  A    between atoms: C_8  and  O_9 
REMARK    2  A    between atoms: O_9  and  C_10 
REMARK    3  A    between atoms: C_10  and  C_11 
REMARK    4  A    between atoms: C_11  and  C_12 
REMARK    5  A    between atoms: C_12  and  C_13 
REMARK    6  A    between atoms: C_13  and  N_14 
REMARK    7  A    between atoms: N_17  and  C_18 
REMARK    8  A    between atoms: N_26  and  C_27 
REMARK    9  A    between atoms: C_27  and  C_28 
ROOT
ATOM      1  N   UNL d   1       8.950   4.381 -14.297  0.00  0.00     0.141 N 
ATOM      2  C   UNL d   1       8.357   5.640 -13.838  0.00  0.00     0.274 C 
ATOM      3  C   UNL d   1       9.220   6.358 -12.778  0.00  0.00     0.137 C 
ATOM      4  N   UNL d   1       9.438   5.422 -11.697  0.00  0.00    -0.344 N 
ATOM      5  C   UNL d   1       9.902   4.082 -12.047  0.00  0.00     0.137 C 
ATOM      6  C   UNL d   1       9.027   3.475 -13.151  0.00  0.00     0.274 C 
ENDROOT
BRANCH   4   7
ATOM      7  C   UNL d   1       9.259   5.820 -10.375  0.00  0.00     0.058 A 
ATOM      8  C   UNL d   1       9.721   7.074  -9.887  0.00  0.00     0.033 A 
ATOM      9  C   UNL d   1       9.468   7.402  -8.538  0.00  0.00     0.062 A 
ATOM     10  C   UNL d   1      10.445   8.168 -10.464  0.00  0.00     0.021 A 
ATOM     11  C   UNL d   1       8.733   6.536  -7.699  0.00  0.00     0.017 A 
ATOM     12  N   UNL d   1      10.092   8.621  -8.297  0.00  0.00    -0.322 N 
ATOM     13  C   UNL d   1       8.273   5.333  -8.227  0.00  0.00     0.003 A 
ATOM     14  C   UNL d   1       8.564   4.942  -9.521  0.00  0.00     0.017 A 
ATOM     15  C   UNL d   1      10.667   9.075  -9.461  0.00  0.00     0.076 A 
BRANCH  12  16
ATOM     16  C   UNL d   1      10.106   9.326  -7.045  0.00  0.00     0.135 C 
BRANCH  16  17
ATOM     17  C   UNL d   1      10.887   8.603  -5.964  0.00  0.00     0.028 A 
ATOM     18  C   UNL d   1      11.252   9.316  -4.795  0.00  0.00     0.138 A 
ATOM     19  C   UNL d   1      11.960   8.655  -3.756  0.00  0.00     0.029 A 
ATOM     20  F   UNL d   1      10.931  10.625  -4.660  0.00  0.00    -0.204 F 
ATOM     21  C   UNL d   1      12.257   7.278  -3.868  0.00  0.00     0.002 A 
ATOM     22  C   UNL d   1      11.864   6.597  -5.028  0.00  0.00    -0.000 A 
ATOM     23  C   UNL d   1      11.226   7.243  -6.101  0.00  0.00    -0.000 A 
ENDBRANCH  16  17
ENDBRANCH  12  16
ENDBRANCH   4   7
BRANCH   1  24
ATOM     24  C   UNL d   1      10.259   4.598 -14.931  0.00  0.00     0.251 C 
BRANCH  24  25
ATOM     25  C   UNL d   1      10.247   4.251 -16.416  0.00  0.00     0.038 C 
BRANCH  25  26
ATOM     26  C   UNL d   1      11.682   4.436 -16.944  0.00  0.00     0.035 C 
BRANCH  26  27
ATOM     27  C   UNL d   1      11.716   4.249 -18.474  0.00  0.00     0.149 C 
BRANCH  27  28
ATOM     28  O   UNL d   1      13.018   4.410 -19.008  0.00  0.00    -0.331 OA
BRANCH  28  29
ATOM     29  C   UNL d   1      13.572   5.673 -19.028  0.00  0.00     0.096 A 
ATOM     30  C   UNL d   1      12.912   6.780 -18.467  0.00  0.00     0.024 A 
ATOM     31  C   UNL d   1      13.563   7.998 -18.378  0.00  0.00    -0.001 A 
ATOM     32  C   UNL d   1      14.826   8.182 -18.951  0.00  0.00    -0.004 A 
ATOM     33  C   UNL d   1      15.509   9.547 -18.936  0.00  0.00     0.038 C 
ATOM     34  C   UNL d   1      15.484   7.101 -19.592  0.00  0.00     0.082 A 
ATOM     35  C   UNL d   1      16.384   9.748 -20.186  0.00  0.00     0.095 C 
ATOM     36  C   UNL d   1      17.236   8.511 -20.503  0.00  0.00     0.256 C 
ATOM     37  O   UNL d   1      18.348   8.644 -21.003  0.00  0.00    -0.270 OA
ATOM     38  N   UNL d   1      16.720   7.298 -20.239  0.00  0.00    -0.212 NA
ATOM     39  C   UNL d   1      14.859   5.827 -19.590  0.00  0.00     0.043 A 
ENDBRANCH  28  29
ENDBRANCH  27  28
ENDBRANCH  26  27
ENDBRANCH  25  26
ENDBRANCH  24  25
ENDBRANCH   1  24
TORSDOF 9
