REMARK  9 active torsions:
REMARK  status: ('A' for Active; 'I' for Inactive)
REMARK    1  A    between atoms: C_7  and  N_8 
REMARK    2  A    between atoms: N_8  and  C_9 
REMARK    3  A    between atoms: C_9  and  C_10 
REMARK    4  A    between atoms: C_10  and  C_11 
REMARK    5  A    between atoms: C_11  and  C_12 
REMARK    6  A    between atoms: C_12  and  C_13 
REMARK    7  A    between atoms: C_13  and  C_14 
REMARK    8  A    between atoms: C_14  and  N_15 
REMARK    9  A    between atoms: N_18  and  C_19 
ROOT
ATOM      1  C   UNL d   1       9.223   7.179 -10.964  0.00  0.00     0.035 C 
ENDROOT
BRANCH   1   2
ATOM      2  C   UNL d   1       9.401   6.309 -12.211  0.00  0.00     0.002 C 
BRANCH   2   3
ATOM      3  C   UNL d   1       8.068   5.880 -12.833  0.00  0.00     0.002 C 
BRANCH   3   4
ATOM      4  C   UNL d   1       7.198   4.977 -11.925  0.00  0.00     0.027 C 
BRANCH   4   5
ATOM      5  C   UNL d   1       5.792   4.747 -12.520  0.00  0.00     0.145 C 
BRANCH   5   6
ATOM      6  N   UNL d   1       5.475   3.349 -12.793  0.00  0.00    -0.085 NA
BRANCH   6   7
ATOM      7  C   UNL d   1       6.215   2.515 -13.607  0.00  0.00     0.776 A 
ATOM      8  N   UNL d   1       7.296   3.041 -14.183  0.00  0.00     0.136 NA
ATOM      9  C   UNL d   1       8.027   2.137 -14.824  0.00  0.00     0.799 A 
ATOM     10  N   UNL d   1       7.775   0.840 -14.976  0.00  0.00     0.138 NA
ATOM     11  N   UNL d   1       9.190   2.602 -15.358  0.00  0.00     0.063 N 
ATOM     12  C   UNL d   1       6.632   0.487 -14.381  0.00  0.00     0.799 A 
ATOM     13  N   UNL d   1       6.262  -0.813 -14.533  0.00  0.00     0.063 N 
ATOM     14  N   UNL d   1       5.800   1.246 -13.665  0.00  0.00     0.136 NA
ENDBRANCH   6   7
ENDBRANCH   5   6
ENDBRANCH   4   5
ENDBRANCH   3   4
ENDBRANCH   2   3
ENDBRANCH   1   2
BRANCH   1  15
ATOM     15  C   UNL d   1      10.526   7.501 -10.214  0.00  0.00     0.250 C 
BRANCH  15  16
ATOM     16  N   UNL d   1      10.290   8.155  -8.928  0.00  0.00     0.141 N 
ATOM     17  C   UNL d   1       9.725   7.210  -7.949  0.00  0.00     0.274 C 
ATOM     18  C   UNL d   1       9.487   7.906  -6.602  0.00  0.00     0.137 C 
ATOM     19  N   UNL d   1      10.713   8.533  -6.140  0.00  0.00    -0.344 N 
ATOM     20  C   UNL d   1      11.385   9.398  -7.087  0.00  0.00     0.137 C 
ATOM     21  C   UNL d   1      11.576   8.654  -8.424  0.00  0.00     0.274 C 
BRANCH  19  22
ATOM     22  C   UNL d   1      11.245   8.305  -4.871  0.00  0.00     0.056 A 
ATOM     23  C   UNL d   1      11.540   9.400  -4.039  0.00  0.00     0.017 A 
ATOM     24  C   UNL d   1      12.049   9.188  -2.744  0.00  0.00     0.002 A 
ATOM     25  C   UNL d   1      12.268   7.886  -2.277  0.00  0.00     0.000 A 
ATOM     26  C   UNL d   1      11.982   6.787  -3.100  0.00  0.00     0.002 A 
ATOM     27  C   UNL d   1      11.463   6.991  -4.396  0.00  0.00     0.017 A 
ENDBRANCH  19  22
ENDBRANCH  15  16
ENDBRANCH   1  15
TORSDOF 9
