REMARK  9 active torsions:
REMARK  status: ('A' for Active; 'I' for Inactive)
REMARK    1  A    between atoms: C_2  and  O_3 
REMARK    2  A    between atoms: O_3  and  N_4 
REMARK    3  A    between atoms: C_5  and  C_6 
REMARK    4  A    between atoms: C_5  and  C_23 
REMARK    5  A    between atoms: C_6  and  C_7 
REMARK    6  A    between atoms: C_7  and  N_8 
REMARK    7  A    between atoms: N_11  and  C_12 
REMARK    8  A    between atoms: C_16  and  O_17 
REMARK    9  A    between atoms: O_17  and  C_18 
ROOT
ATOM      1  N   UNL d   1       9.335   6.083 -10.657  0.00  0.00     0.141 N 
ATOM      2  C   UNL d   1       9.305   5.361  -9.386  0.00  0.00     0.274 C 
ATOM      3  C   UNL d   1       8.897   6.310  -8.264  0.00  0.00     0.137 C 
ATOM      4  N   UNL d   1       9.819   7.445  -8.234  0.00  0.00    -0.344 N 
ATOM      5  C   UNL d   1       9.962   8.184  -9.485  0.00  0.00     0.137 C 
ATOM      6  C   UNL d   1      10.321   7.177 -10.570  0.00  0.00     0.274 C 
ENDROOT
BRANCH   1   7
ATOM      7  C   UNL d   1       9.724   5.150 -11.718  0.00  0.00     0.257 C 
BRANCH   7   8
ATOM      8  C   UNL d   1       8.528   4.820 -12.639  0.00  0.00     0.083 C 
BRANCH   8   9
ATOM      9  C   UNL d   1       8.882   3.917 -13.857  0.00  0.00     0.087 C 
ATOM     10  N   UNL d   1       9.821   4.174 -14.669  0.00  0.00    -0.136 NA
BRANCH  10  11
ATOM     11  O   UNL d   1      10.483   5.366 -14.365  0.00  0.00    -0.237 OA
BRANCH  11  12
ATOM     12  C   UNL d   1      11.573   5.541 -15.264  0.00  0.00     0.176 C 
ATOM     13  C   UNL d   1      12.703   4.522 -14.990  0.00  0.00     0.038 C 
ENDBRANCH  11  12
ENDBRANCH  10  11
BRANCH   9  14
ATOM     14  C   UNL d   1       8.015   2.725 -14.039  0.00  0.00     0.016 A 
ATOM     15  C   UNL d   1       6.647   2.722 -13.726  0.00  0.00     0.001 A 
ATOM     16  C   UNL d   1       5.859   1.566 -13.901  0.00  0.00     0.000 A 
ATOM     17  C   UNL d   1       6.428   0.405 -14.442  0.00  0.00     0.000 A 
ATOM     18  C   UNL d   1       7.795   0.399 -14.793  0.00  0.00     0.000 A 
ATOM     19  C   UNL d   1       8.588   1.534 -14.596  0.00  0.00     0.001 A 
ENDBRANCH   9  14
ENDBRANCH   8   9
ENDBRANCH   7   8
ENDBRANCH   1   7
BRANCH   4  20
ATOM     20  C   UNL d   1      10.456   7.876  -7.062  0.00  0.00     0.058 A 
ATOM     21  C   UNL d   1      10.784   6.951  -6.031  0.00  0.00     0.041 A 
ATOM     22  C   UNL d   1      11.526   7.361  -4.902  0.00  0.00     0.096 A 
ATOM     23  C   UNL d   1      11.975   8.710  -4.817  0.00  0.00     0.024 A 
ATOM     24  C   UNL d   1      11.578   9.633  -5.773  0.00  0.00     0.004 A 
ATOM     25  C   UNL d   1      10.830   9.226  -6.892  0.00  0.00     0.017 A 
BRANCH  22  26
ATOM     26  O   UNL d   1      11.810   6.447  -3.918  0.00  0.00    -0.331 OA
BRANCH  26  27
ATOM     27  C   UNL d   1      12.589   6.885  -2.807  0.00  0.00     0.149 C 
ATOM     28  C   UNL d   1      11.870   7.907  -1.903  0.00  0.00     0.035 C 
ENDBRANCH  26  27
ENDBRANCH  22  26
ENDBRANCH   4  20
TORSDOF 9
