REMARK  1 active torsions:
REMARK  status: ('A' for Active; 'I' for Inactive)
REMARK    1  A    between atoms: N_6  and  C_7 
ROOT
ATOM      1  O   UNL d   1      12.531   8.434  -1.672  0.00  0.00    -0.263 OA
ATOM      2  C   UNL d   1      12.112   8.406  -2.826  0.00  0.00     0.312 A 
ATOM      3  N   UNL d   1      11.722   9.592  -3.473  0.00  0.00    -0.151 NA
ATOM      4  C   UNL d   1      11.242   9.692  -4.785  0.00  0.00     0.355 A 
ATOM      5  O   UNL d   1      10.896  10.772  -5.220  0.00  0.00    -0.244 OA
ATOM      6  N   UNL d   1      11.197   8.521  -5.548  0.00  0.00    -0.254 N 
ATOM      7  C   UNL d   1      11.519   7.296  -4.922  0.00  0.00     0.117 A 
ATOM      8  C   UNL d   1      11.958   7.212  -3.644  0.00  0.00     0.215 A 
ATOM      9  F   UNL d   1      12.261   6.024  -3.129  0.00  0.00    -0.198 F 
ENDROOT
BRANCH   6  10
ATOM     10  C   UNL d   1      10.619   8.590  -6.974  0.00  0.00     0.208 C 
ATOM     11  O   UNL d   1       9.240   8.388  -6.907  0.00  0.00    -0.336 OA
ATOM     12  C   UNL d   1       9.006   6.991  -6.898  0.00  0.00     0.145 C 
ATOM     13  C   UNL d   1      10.099   6.428  -7.817  0.00  0.00     0.037 C 
ATOM     14  C   UNL d   1      11.174   7.503  -7.895  0.00  0.00     0.057 C 
ENDBRANCH   6  10
TORSDOF 1
