REMARK  7 active torsions:
REMARK  status: ('A' for Active; 'I' for Inactive)
REMARK    1  A    between atoms: N_12  and  C_13 
REMARK    2  A    between atoms: C_13  and  C_14 
REMARK    3  A    between atoms: C_14  and  C_15 
REMARK    4  A    between atoms: C_15  and  C_16 
REMARK    5  A    between atoms: C_16  and  N_17 
REMARK    6  A    between atoms: N_17  and  C_18 
REMARK    7  A    between atoms: C_18  and  C_19 
ROOT
ATOM      1  C   UNL d   1       8.665   4.768 -12.946  0.00  0.00     0.027 C 
ENDROOT
BRANCH   1   2
ATOM      2  C   UNL d   1       9.817   3.743 -12.994  0.00  0.00     0.112 C 
BRANCH   2   3
ATOM      3  N   UNL d   1      10.237   3.446 -14.380  0.00  0.00    -0.271 N 
ATOM      4  C   UNL d   1       9.444   2.608 -15.100  0.00  0.00     0.239 C 
ATOM      5  O   UNL d   1       8.402   2.120 -14.662  0.00  0.00    -0.272 OA
ATOM      6  C   UNL d   1       9.857   2.227 -16.516  0.00  0.00     0.089 C 
ATOM      7  C   UNL d   1      10.720   3.292 -17.221  0.00  0.00     0.018 C 
ATOM      8  C   UNL d   1      11.219   2.721 -18.558  0.00  0.00     0.001 C 
ATOM      9  C   UNL d   1       9.867   4.511 -17.653  0.00  0.00     0.001 C 
ATOM     10  C   UNL d   1      11.865   3.699 -16.287  0.00  0.00     0.089 C 
ATOM     11  C   UNL d   1      10.135   3.063 -19.595  0.00  0.00     0.000 C 
ATOM     12  C   UNL d   1       9.186   4.084 -18.949  0.00  0.00     0.000 C 
ATOM     13  C   UNL d   1      11.386   3.995 -14.853  0.00  0.00     0.239 C 
ATOM     14  O   UNL d   1      12.107   4.729 -14.190  0.00  0.00    -0.272 OA
ENDBRANCH   2   3
ENDBRANCH   1   2
BRANCH   1  15
ATOM     15  C   UNL d   1       8.366   5.213 -11.509  0.00  0.00     0.040 C 
BRANCH  15  16
ATOM     16  C   UNL d   1       9.288   6.346 -11.041  0.00  0.00     0.290 C 
BRANCH  16  17
ATOM     17  N   UNL d   1       9.458   6.281  -9.602  0.00  0.00     0.339 N 
BRANCH  17  18
ATOM     18  C   UNL d   1      10.007   7.533  -9.107  0.00  0.00     0.293 C 
BRANCH  18  19
ATOM     19  C   UNL d   1      10.176   7.466  -7.579  0.00  0.00     0.071 C 
ATOM     20  C   UNL d   1      10.452   8.858  -7.000  0.00  0.00     0.033 C 
ATOM     21  C   UNL d   1      11.009   8.787  -5.593  0.00  0.00     0.000 A 
ATOM     22  C   UNL d   1      11.455   7.558  -5.051  0.00  0.00     0.090 A 
ATOM     23  C   UNL d   1      11.057   9.954  -4.806  0.00  0.00    -0.002 A 
ATOM     24  O   UNL d   1      11.452   6.397  -5.779  0.00  0.00    -0.331 OA
ATOM     25  C   UNL d   1      11.927   7.498  -3.730  0.00  0.00     0.024 A 
ATOM     26  C   UNL d   1      11.321   6.525  -7.184  0.00  0.00     0.151 C 
ATOM     27  C   UNL d   1      11.967   8.664  -2.941  0.00  0.00     0.002 A 
ATOM     28  C   UNL d   1      11.528   9.883  -3.482  0.00  0.00    -0.000 A 
ENDBRANCH  18  19
ENDBRANCH  17  18
ENDBRANCH  16  17
ENDBRANCH  15  16
ENDBRANCH   1  15
TORSDOF 7
