REMARK  7 active torsions:
REMARK  status: ('A' for Active; 'I' for Inactive)
REMARK    1  A    between atoms: C_2  and  C_3 
REMARK    2  A    between atoms: C_2  and  C_19 
REMARK    3  A    between atoms: C_3  and  C_4 
REMARK    4  A    between atoms: C_4  and  N_5 
REMARK    5  A    between atoms: C_7  and  C_8 
REMARK    6  A    between atoms: C_19  and  N_20 
REMARK    7  A    between atoms: N_23  and  C_24 
ROOT
ATOM      1  O   UNL d   1       6.164   4.846 -12.295  0.00  0.00    -0.221 OA
ATOM      2  C   UNL d   1       7.534   4.532 -12.454  0.00  0.00     0.188 C 
ENDROOT
BRANCH   2   3
ATOM      3  C   UNL d   1       8.395   5.586 -11.741  0.00  0.00     0.061 C 
BRANCH   3   4
ATOM      4  C   UNL d   1       8.914   5.100 -10.366  0.00  0.00     0.132 C 
BRANCH   4   5
ATOM      5  N   UNL d   1       9.596   6.124  -9.594  0.00  0.00    -0.230 N 
ATOM      6  N   UNL d   1      10.257   7.131 -10.214  0.00  0.00    -0.064 NA
ATOM      7  N   UNL d   1      10.777   7.870  -9.293  0.00  0.00    -0.129 NA
ATOM      8  C   UNL d   1      10.465   7.346  -8.040  0.00  0.00     0.123 A 
ATOM      9  C   UNL d   1       9.726   6.213  -8.225  0.00  0.00     0.118 A 
BRANCH   8  10
ATOM     10  C   UNL d   1      10.929   7.979  -6.811  0.00  0.00     0.021 A 
ATOM     11  C   UNL d   1      11.105   7.215  -5.636  0.00  0.00     0.003 A 
ATOM     12  C   UNL d   1      11.562   7.809  -4.435  0.00  0.00     0.019 A 
ATOM     13  C   UNL d   1      11.819   9.212  -4.458  0.00  0.00     0.081 A 
ATOM     14  C   UNL d   1      11.863   7.316  -3.118  0.00  0.00     0.022 A 
ATOM     15  C   UNL d   1      11.635   9.987  -5.621  0.00  0.00     0.019 A 
ATOM     16  N   UNL d   1      12.237   9.525  -3.176  0.00  0.00    -0.244 NA
ATOM     17  C   UNL d   1      11.189   9.364  -6.796  0.00  0.00     0.003 A 
ATOM     18  C   UNL d   1      12.257   8.399  -2.374  0.00  0.00     0.099 A 
ENDBRANCH   8  10
ENDBRANCH   4   5
ENDBRANCH   3   4
ENDBRANCH   2   3
BRANCH   2  19
ATOM     19  C   UNL d   1       7.825   4.399 -13.959  0.00  0.00     0.283 C 
BRANCH  19  20
ATOM     20  N   UNL d   1       9.160   3.941 -14.330  0.00  0.00     0.144 N 
ATOM     21  C   UNL d   1       9.475   4.368 -15.690  0.00  0.00     0.274 C 
ATOM     22  C   UNL d   1      10.892   3.993 -16.104  0.00  0.00     0.137 C 
ATOM     23  N   UNL d   1      11.095   2.558 -15.948  0.00  0.00    -0.344 N 
ATOM     24  C   UNL d   1      10.707   2.008 -14.647  0.00  0.00     0.137 C 
ATOM     25  C   UNL d   1       9.294   2.482 -14.245  0.00  0.00     0.274 C 
BRANCH  23  26
ATOM     26  C   UNL d   1      11.589   1.766 -17.002  0.00  0.00     0.068 A 
ATOM     27  C   UNL d   1      12.675   2.182 -17.823  0.00  0.00     0.084 A 
ATOM     28  C   UNL d   1      13.133   1.352 -18.869  0.00  0.00     0.070 A 
ATOM     29 CL   UNL d   1      13.525   3.670 -17.547  0.00  0.00    -0.080 Cl
ATOM     30  C   UNL d   1      12.518   0.116 -19.114  0.00  0.00     0.012 A 
ATOM     31 CL   UNL d   1      14.477   1.821 -19.847  0.00  0.00    -0.081 Cl
ATOM     32  C   UNL d   1      11.449  -0.304 -18.311  0.00  0.00     0.002 A 
ATOM     33  C   UNL d   1      10.991   0.512 -17.262  0.00  0.00     0.018 A 
ENDBRANCH  23  26
ENDBRANCH  19  20
ENDBRANCH   2  19
TORSDOF 7
