REMARK  4 active torsions:
REMARK  status: ('A' for Active; 'I' for Inactive)
REMARK    1  A    between atoms: C_2  and  C_3 
REMARK    2  A    between atoms: C_3  and  N_4 
REMARK    3  A    between atoms: N_7  and  C_8 
REMARK    4  A    between atoms: C_13  and  S_14 
ROOT
ATOM      1  C   UNL d   1       7.412   2.325 -14.436  0.00  0.00     0.067 A 
ATOM      2  C   UNL d   1       7.916   3.582 -14.039  0.00  0.00     0.018 A 
ATOM      3  C   UNL d   1       7.210   4.386 -13.110  0.00  0.00     0.002 A 
ATOM      4  C   UNL d   1       5.995   3.931 -12.579  0.00  0.00     0.001 A 
ATOM      5  C   UNL d   1       5.483   2.683 -12.960  0.00  0.00     0.013 A 
ATOM      6  C   UNL d   1       6.183   1.858 -13.880  0.00  0.00     0.099 A 
ENDROOT
BRANCH   1   7
ATOM      7  N   UNL d   1       8.189   1.600 -15.360  0.00  0.00    -0.344 N 
ATOM      8  C   UNL d   1       8.149   1.869 -16.778  0.00  0.00     0.137 C 
ATOM      9  C   UNL d   1       9.588   1.984 -17.290  0.00  0.00     0.274 C 
ATOM     10  N   UNL d   1      10.355   0.759 -16.986  0.00  0.00     0.141 N 
ATOM     11  C   UNL d   1      10.428   0.611 -15.522  0.00  0.00     0.274 C 
ATOM     12  C   UNL d   1       9.032   0.496 -15.001  0.00  0.00     0.137 C 
BRANCH  10  13
ATOM     13  C   UNL d   1      11.711   0.822 -17.492  0.00  0.00     0.250 C 
BRANCH  13  14
ATOM     14  C   UNL d   1      11.762   0.713 -19.024  0.00  0.00     0.035 C 
ATOM     15  C   UNL d   1      11.578  -0.729 -19.506  0.00  0.00     0.002 C 
ENDBRANCH  13  14
ENDBRANCH  10  13
ENDBRANCH   1   7
BRANCH   6  16
ATOM     16  S   UNL d   1       5.426   0.270 -14.308  0.00  0.00     0.192 S 
ATOM     17  C   UNL d   1       6.465  -1.029 -13.529  0.00  0.00     0.145 C 
ATOM     18  O   UNL d   1       4.110   0.192 -13.644  0.00  0.00    -0.222 OA
ATOM     19  O   UNL d   1       5.509   0.104 -15.762  0.00  0.00    -0.222 OA
ENDBRANCH   6  16
TORSDOF 4
