REMARK  12 active torsions:
REMARK  status: ('A' for Active; 'I' for Inactive)
REMARK    1  A    between atoms: O_2  and  C_3 
REMARK    2  A    between atoms: C_6  and  C_7 
REMARK    3  A    between atoms: C_7  and  C_8 
REMARK    4  A    between atoms: C_8  and  N_9 
REMARK    5  A    between atoms: N_9  and  C_10 
REMARK    6  A    between atoms: N_9  and  C_19 
REMARK    7  A    between atoms: C_10  and  C_11 
REMARK    8  A    between atoms: C_11  and  C_12 
REMARK    9  A    between atoms: C_12  and  C_13 
REMARK   10  A    between atoms: C_19  and  C_20 
REMARK   11  A    between atoms: C_20  and  C_21 
REMARK   12  A    between atoms: C_31  and  O_32 
ROOT
ATOM      1  N   UNL d   1       9.228   3.962 -13.040  0.00  0.00     0.138 N 
ENDROOT
BRANCH   1   2
ATOM      2  C   UNL d   1       8.229   3.211 -13.829  0.00  0.00     0.255 C 
BRANCH   2   3
ATOM      3  C   UNL d   1       8.767   1.882 -14.424  0.00  0.00     0.062 C 
BRANCH   3   4
ATOM      4  C   UNL d   1       7.754   1.227 -15.335  0.00  0.00    -0.018 A 
ATOM      5  C   UNL d   1       8.069   0.926 -16.671  0.00  0.00    -0.002 A 
ATOM      6  C   UNL d   1       7.147   0.250 -17.502  0.00  0.00     0.026 A 
ATOM      7  C   UNL d   1       5.868  -0.114 -16.987  0.00  0.00     0.116 A 
ATOM      8  C   UNL d   1       5.546   0.211 -15.652  0.00  0.00     0.116 A 
ATOM      9  C   UNL d   1       6.478   0.891 -14.841  0.00  0.00     0.022 A 
BRANCH   7  10
ATOM     10  O   UNL d   1       4.909  -0.723 -17.748  0.00  0.00    -0.326 OA
ATOM     11  C   UNL d   1       5.241  -1.151 -19.051  0.00  0.00     0.181 C 
ENDBRANCH   7  10
BRANCH   8  12
ATOM     12  O   UNL d   1       4.320  -0.098 -15.094  0.00  0.00    -0.326 OA
ATOM     13  C   UNL d   1       4.050  -1.475 -14.994  0.00  0.00     0.181 C 
ENDBRANCH   8  12
ENDBRANCH   3   4
ENDBRANCH   2   3
ENDBRANCH   1   2
BRANCH   1  14
ATOM     14  C   UNL d   1       8.560   4.785 -12.003  0.00  0.00     0.251 C 
BRANCH  14  15
ATOM     15  C   UNL d   1       9.549   5.465 -11.017  0.00  0.00     0.040 C 
BRANCH  15  16
ATOM     16  C   UNL d   1       8.914   6.596 -10.225  0.00  0.00     0.028 C 
BRANCH  16  17
ATOM     17  C   UNL d   1       9.814   7.098  -9.115  0.00  0.00    -0.022 A 
ATOM     18  C   UNL d   1       9.484   6.809  -7.777  0.00  0.00    -0.004 A 
ATOM     19  C   UNL d   1      10.304   7.273  -6.733  0.00  0.00    -0.000 A 
ATOM     20  C   UNL d   1      11.454   8.031  -7.027  0.00  0.00    -0.000 A 
ATOM     21  C   UNL d   1      11.788   8.322  -8.365  0.00  0.00    -0.000 A 
ATOM     22  C   UNL d   1      10.965   7.858  -9.410  0.00  0.00    -0.004 A 
ENDBRANCH  16  17
ENDBRANCH  15  16
ENDBRANCH  14  15
ENDBRANCH   1  14
BRANCH   1  23
ATOM     23  C   UNL d   1      10.013   4.843 -13.922  0.00  0.00     0.255 C 
BRANCH  23  24
ATOM     24  C   UNL d   1      10.856   4.091 -14.947  0.00  0.00     0.062 C 
BRANCH  24  25
ATOM     25  C   UNL d   1      11.591   4.984 -15.890  0.00  0.00    -0.018 A 
ATOM     26  C   UNL d   1      12.996   5.080 -15.817  0.00  0.00     0.022 A 
ATOM     27  C   UNL d   1      13.642   5.859 -16.790  0.00  0.00     0.119 A 
ATOM     28  C   UNL d   1      12.935   6.511 -17.781  0.00  0.00     0.119 A 
ATOM     29  O   UNL d   1      14.968   6.136 -16.899  0.00  0.00    -0.300 OA
ATOM     30  C   UNL d   1      11.540   6.401 -17.901  0.00  0.00     0.026 A 
ATOM     31  O   UNL d   1      13.790   7.227 -18.536  0.00  0.00    -0.300 OA
ATOM     32  C   UNL d   1      10.869   5.628 -16.927  0.00  0.00    -0.002 A 
ATOM     33  C   UNL d   1      15.064   7.000 -17.989  0.00  0.00     0.304 A 
ENDBRANCH  24  25
ENDBRANCH  23  24
ENDBRANCH   1  23
TORSDOF 12
