REMARK  8 active torsions:
REMARK  status: ('A' for Active; 'I' for Inactive)
REMARK    1  A    between atoms: C_2  and  N_3 
REMARK    2  A    between atoms: N_3  and  C_4 
REMARK    3  A    between atoms: N_3  and  C_15 
REMARK    4  A    between atoms: C_4  and  C_5 
REMARK    5  A    between atoms: C_5  and  C_6 
REMARK    6  A    between atoms: C_11  and  O_12 
REMARK    7  A    between atoms: C_15  and  C_16 
REMARK    8  A    between atoms: C_22  and  O_23 
ROOT
ATOM      1  N   UNL d   1       7.795   4.354 -12.608  0.00  0.00     0.142 N 
ENDROOT
BRANCH   1   2
ATOM      2  C   UNL d   1       6.404   4.689 -12.318  0.00  0.00     0.251 C 
ATOM      3  C   UNL d   1       5.366   3.789 -12.983  0.00  0.00     0.037 C 
ENDBRANCH   1   2
BRANCH   1   4
ATOM      4  C   UNL d   1       8.687   5.292 -11.906  0.00  0.00     0.255 C 
BRANCH   4   5
ATOM      5  C   UNL d   1       8.401   5.505 -10.410  0.00  0.00     0.062 C 
BRANCH   5   6
ATOM      6  C   UNL d   1       9.446   6.387  -9.721  0.00  0.00    -0.018 A 
ATOM      7  C   UNL d   1       9.863   6.089  -8.422  0.00  0.00     0.022 A 
ATOM      8  C   UNL d   1      10.797   6.904  -7.765  0.00  0.00     0.119 A 
ATOM      9  C   UNL d   1      11.332   8.028  -8.434  0.00  0.00     0.153 A 
ATOM     10  C   UNL d   1      10.901   8.352  -9.731  0.00  0.00     0.029 A 
ATOM     11  O   UNL d   1      12.293   8.788  -7.843  0.00  0.00    -0.188 OA
ATOM     12  C   UNL d   1       9.948   7.542 -10.372  0.00  0.00    -0.002 A 
BRANCH   8  13
ATOM     13  O   UNL d   1      11.279   6.538  -6.542  0.00  0.00    -0.326 OA
ATOM     14  C   UNL d   1      10.431   6.903  -5.468  0.00  0.00     0.181 C 
ENDBRANCH   8  13
ENDBRANCH   5   6
ENDBRANCH   4   5
ENDBRANCH   1   4
BRANCH   1  15
ATOM     15  C   UNL d   1       8.073   4.411 -14.055  0.00  0.00     0.279 C 
BRANCH  15  16
ATOM     16  C   UNL d   1       9.451   3.955 -14.537  0.00  0.00     0.035 A 
ATOM     17  C   UNL d   1       9.629   2.700 -15.188  0.00  0.00     0.117 A 
ATOM     18  C   UNL d   1      10.917   2.341 -15.664  0.00  0.00     0.153 A 
ATOM     19  C   UNL d   1      12.015   3.196 -15.435  0.00  0.00     0.029 A 
ATOM     20  O   UNL d   1      11.129   1.192 -16.359  0.00  0.00    -0.188 OA
ATOM     21  C   UNL d   1      11.840   4.416 -14.772  0.00  0.00     0.002 A 
ATOM     22  C   UNL d   1      10.547   4.817 -14.370  0.00  0.00    -0.000 A 
BRANCH  17  23
ATOM     23  O   UNL d   1       8.545   1.886 -15.414  0.00  0.00    -0.326 OA
ATOM     24  C   UNL d   1       8.558   0.665 -14.694  0.00  0.00     0.181 C 
ENDBRANCH  17  23
ENDBRANCH  15  16
ENDBRANCH   1  15
TORSDOF 8
