REMARK  6 active torsions:
REMARK  status: ('A' for Active; 'I' for Inactive)
REMARK    1  A    between atoms: C_6  and  C_7 
REMARK       I    between atoms: C_7  and  N_9 
REMARK    2  A    between atoms: N_9  and  C_10 
REMARK    3  A    between atoms: C_13  and  C_14 
REMARK    4  A    between atoms: C_14  and  C_15 
REMARK    5  A    between atoms: C_15  and  N_16 
REMARK    6  A    between atoms: N_19  and  C_20 
ROOT
ATOM      1  C   UNL d   1       8.938   6.321  -9.959  0.00  0.00     0.106 C 
ATOM      2  C   UNL d   1       9.554   7.144 -11.131  0.00  0.00     0.024 C 
ATOM      3  C   UNL d   1       9.183   6.649 -12.517  0.00  0.00     0.002 C 
ATOM      4  C   UNL d   1       9.571   5.189 -12.728  0.00  0.00     0.002 C 
ATOM      5  C   UNL d   1       8.953   4.348 -11.595  0.00  0.00     0.002 C 
ATOM      6  C   UNL d   1       9.250   4.837 -10.162  0.00  0.00     0.024 C 
ENDROOT
BRANCH   4   7
ATOM      7  C   UNL d   1       9.127   4.725 -14.128  0.00  0.00     0.035 C 
BRANCH   7   8
ATOM      8  C   UNL d   1       9.627   3.316 -14.489  0.00  0.00     0.250 C 
BRANCH   8   9
ATOM      9  N   UNL d   1       9.114   2.922 -15.799  0.00  0.00     0.141 N 
ATOM     10  C   UNL d   1       9.963   1.866 -16.372  0.00  0.00     0.274 C 
ATOM     11  C   UNL d   1       9.423   1.426 -17.749  0.00  0.00     0.138 C 
ATOM     12  N   UNL d   1       8.027   1.012 -17.628  0.00  0.00    -0.330 N 
ATOM     13  C   UNL d   1       7.152   1.926 -16.918  0.00  0.00     0.138 C 
ATOM     14  C   UNL d   1       7.774   2.375 -15.600  0.00  0.00     0.274 C 
BRANCH  12  15
ATOM     15  C   UNL d   1       7.526  -0.190 -18.166  0.00  0.00     0.138 A 
ATOM     16  C   UNL d   1       6.220  -0.358 -18.677  0.00  0.00     0.036 A 
ATOM     17  C   UNL d   1       5.805  -1.596 -19.149  0.00  0.00     0.095 A 
ATOM     18  C   UNL d   1       5.119   0.636 -18.959  0.00  0.00     0.064 C 
ATOM     19  C   UNL d   1       6.669  -2.692 -19.094  0.00  0.00     0.045 A 
ATOM     20  O   UNL d   1       4.551  -1.570 -19.689  0.00  0.00    -0.331 OA
ATOM     21  C   UNL d   1       7.954  -2.452 -18.573  0.00  0.00     0.103 A 
ATOM     22  N   UNL d   1       8.390  -1.240 -18.156  0.00  0.00    -0.228 NA
ATOM     23  C   UNL d   1       3.998  -0.273 -19.469  0.00  0.00     0.154 C 
ENDBRANCH  12  15
ENDBRANCH   8   9
ENDBRANCH   7   8
ENDBRANCH   4   7
BRANCH   1  24
ATOM     24  N   UNL d   1       9.523   6.727  -8.677  0.00  0.00    -0.240 NA
ATOM     25  C   UNL d   1       9.829   7.982  -8.292  0.00  0.00     0.251 C 
ATOM     26  O   UNL d   1       9.457   8.989  -8.864  0.00  0.00    -0.271 OA
BRANCH  25  27
ATOM     27  C   UNL d   1      10.813   8.088  -7.138  0.00  0.00     0.081 C 
ATOM     28  C   UNL d   1      10.189   7.524  -5.854  0.00  0.00     0.012 C 
ATOM     29  C   UNL d   1      11.169   7.681  -4.676  0.00  0.00     0.031 C 
ATOM     30  C   UNL d   1      11.649   9.161  -4.475  0.00  0.00     0.127 C 
ATOM     31  C   UNL d   1      12.585   9.246  -3.320  0.00  0.00     0.033 C 
ATOM     32  C   UNL d   1      12.232   9.717  -5.779  0.00  0.00     0.031 C 
ATOM     33  O   UNL d   1      10.694  10.122  -4.138  0.00  0.00    -0.226 OA
ATOM     34  C   UNL d   1      11.237   9.552  -6.922  0.00  0.00     0.012 C 
ENDBRANCH  25  27
ENDBRANCH   1  24
TORSDOF 6
