REMARK  7 active torsions:
REMARK  status: ('A' for Active; 'I' for Inactive)
REMARK    1  A    between atoms: C_5  and  C_6 
REMARK    2  A    between atoms: C_9  and  S_10 
REMARK    3  A    between atoms: S_10  and  C_11 
REMARK    4  A    between atoms: C_11  and  C_12 
REMARK    5  A    between atoms: C_12  and  C_13 
REMARK    6  A    between atoms: C_13  and  N_14 
REMARK    7  A    between atoms: C_20  and  C_21 
ROOT
ATOM      1  N   UNL d   1       8.754  -0.223 -19.915  0.00  0.00     0.138 N 
ATOM      2  C   UNL d   1       8.526  -1.106 -18.764  0.00  0.00     0.255 C 
ATOM      3  C   UNL d   1       7.382  -0.642 -17.843  0.00  0.00     0.061 C 
ATOM      4  C   UNL d   1       7.801   0.437 -16.863  0.00  0.00    -0.024 A 
ATOM      5  C   UNL d   1       7.719   0.175 -15.482  0.00  0.00    -0.004 A 
ATOM      6  C   UNL d   1       8.138   1.131 -14.547  0.00  0.00     0.001 A 
ATOM      7  C   UNL d   1       8.611   2.390 -14.968  0.00  0.00     0.020 A 
ATOM      8  C   UNL d   1       8.706   2.651 -16.352  0.00  0.00    -0.003 A 
ATOM      9  C   UNL d   1       8.294   1.687 -17.300  0.00  0.00    -0.024 A 
ATOM     10  C   UNL d   1       8.389   1.993 -18.781  0.00  0.00     0.061 C 
ATOM     11  C   UNL d   1       9.347   1.061 -19.537  0.00  0.00     0.255 C 
ENDROOT
BRANCH   1  12
ATOM     12  C   UNL d   1       9.660  -0.869 -20.868  0.00  0.00     0.251 C 
BRANCH  12  13
ATOM     13  C   UNL d   1       8.911  -1.867 -21.763  0.00  0.00     0.047 C 
BRANCH  13  14
ATOM     14  C   UNL d   1       9.806  -2.533 -22.831  0.00  0.00     0.067 C 
BRANCH  14  15
ATOM     15  S   UNL d   1       8.865  -3.423 -24.116  0.00  0.00    -0.075 SA
BRANCH  15  16
ATOM     16  C   UNL d   1       7.883  -4.471 -23.092  0.00  0.00     0.193 A 
ATOM     17  N   UNL d   1       8.302  -5.636 -22.599  0.00  0.00    -0.122 NA
ATOM     18  N   UNL d   1       7.250  -6.113 -21.852  0.00  0.00    -0.128 NA
ATOM     19  C   UNL d   1       6.279  -5.194 -21.943  0.00  0.00     0.167 A 
ATOM     20  N   UNL d   1       6.623  -4.150 -22.730  0.00  0.00    -0.289 N 
ATOM     21  C   UNL d   1       5.848  -2.971 -23.097  0.00  0.00     0.134 C 
BRANCH  19  22
ATOM     22  C   UNL d   1       4.996  -5.352 -21.253  0.00  0.00     0.036 A 
ATOM     23  C   UNL d   1       4.340  -6.602 -21.257  0.00  0.00     0.003 A 
ATOM     24  C   UNL d   1       3.098  -6.758 -20.610  0.00  0.00    -0.004 A 
ATOM     25  C   UNL d   1       2.500  -5.663 -19.954  0.00  0.00    -0.022 A 
ATOM     26  C   UNL d   1       1.168  -5.830 -19.255  0.00  0.00     0.031 C 
ATOM     27  C   UNL d   1       3.154  -4.418 -19.937  0.00  0.00    -0.004 A 
ATOM     28  C   UNL d   1       4.398  -4.262 -20.577  0.00  0.00     0.003 A 
ENDBRANCH  19  22
ENDBRANCH  15  16
ENDBRANCH  14  15
ENDBRANCH  13  14
ENDBRANCH  12  13
ENDBRANCH   1  12
BRANCH   7  29
ATOM     29  C   UNL d   1       8.993   3.414 -13.995  0.00  0.00     0.110 A 
ATOM     30  N   UNL d   1      10.203   3.947 -14.037  0.00  0.00    -0.127 NA
ATOM     31  O   UNL d   1      10.263   4.859 -12.980  0.00  0.00    -0.215 OA
ATOM     32  C   UNL d   1       9.069   4.860 -12.336  0.00  0.00     0.105 A 
ATOM     33  C   UNL d   1       8.213   3.990 -12.945  0.00  0.00     0.044 A 
ATOM     34  C   UNL d   1       8.950   5.775 -11.158  0.00  0.00     0.061 C 
ENDBRANCH   7  29
TORSDOF 7
