REMARK  4 active torsions:
REMARK  status: ('A' for Active; 'I' for Inactive)
REMARK    1  A    between atoms: C_5  and  C_6 
REMARK    2  A    between atoms: C_8  and  C_9 
REMARK    3  A    between atoms: N_12  and  C_13 
REMARK    4  A    between atoms: C_13  and  C_14 
ROOT
ATOM      1  C   UNL d   1       9.597   6.245 -10.484  0.00  0.00     0.046 C 
ATOM      2  C   UNL d   1       9.013   7.094 -11.629  0.00  0.00     0.041 C 
ATOM      3  C   UNL d   1       8.496   6.256 -12.765  0.00  0.00     0.251 C 
ATOM      4  N   UNL d   1       7.569   5.230 -12.288  0.00  0.00     0.137 N 
ATOM      5  C   UNL d   1       8.136   4.394 -11.243  0.00  0.00     0.251 C 
ATOM      6  C   UNL d   1       8.628   5.147 -10.046  0.00  0.00     0.041 C 
ENDROOT
BRANCH   1   7
ATOM      7  C   UNL d   1      10.091   7.027  -9.323  0.00  0.00     0.082 A 
ATOM      8  C   UNL d   1      10.399   6.672  -8.040  0.00  0.00     0.037 A 
ATOM      9  C   UNL d   1      10.694   7.929  -7.416  0.00  0.00     0.104 A 
ATOM     10  N   UNL d   1      10.638   8.941  -8.268  0.00  0.00    -0.148 NA
ATOM     11  N   UNL d   1      10.292   8.371  -9.431  0.00  0.00    -0.152 NA
BRANCH   9  12
ATOM     12  C   UNL d   1      11.060   8.184  -6.037  0.00  0.00     0.019 A 
ATOM     13  C   UNL d   1      11.045   9.496  -5.529  0.00  0.00     0.002 A 
ATOM     14  C   UNL d   1      11.444   9.741  -4.199  0.00  0.00     0.011 A 
ATOM     15  C   UNL d   1      11.873   8.672  -3.393  0.00  0.00     0.058 A 
ATOM     16 CL   UNL d   1      12.342   8.913  -1.760  0.00  0.00    -0.082 Cl
ATOM     17  C   UNL d   1      11.869   7.364  -3.885  0.00  0.00     0.011 A 
ATOM     18  C   UNL d   1      11.453   7.113  -5.208  0.00  0.00     0.002 A 
ENDBRANCH   9  12
ENDBRANCH   1   7
BRANCH   4  19
ATOM     19  C   UNL d   1       6.999   4.405 -13.353  0.00  0.00     0.250 C 
BRANCH  19  20
ATOM     20  C   UNL d   1       7.910   3.317 -14.034  0.00  0.00     0.033 C 
ATOM     21  C   UNL d   1       7.051   2.297 -14.840  0.00  0.00     0.002 C 
ATOM     22  C   UNL d   1       7.984   1.186 -15.381  0.00  0.00     0.000 C 
ATOM     23  C   UNL d   1       9.157   1.756 -16.210  0.00  0.00     0.000 C 
ATOM     24  C   UNL d   1       9.969   2.757 -15.390  0.00  0.00     0.000 C 
ATOM     25  C   UNL d   1       9.105   3.888 -14.868  0.00  0.00     0.002 C 
ENDBRANCH  19  20
ENDBRANCH   4  19
TORSDOF 4
