REMARK  10 active torsions:
REMARK  status: ('A' for Active; 'I' for Inactive)
REMARK    1  A    between atoms: C_2  and  C_3 
REMARK    2  A    between atoms: C_3  and  N_4 
REMARK    3  A    between atoms: C_8  and  C_9 
REMARK    4  A    between atoms: C_9  and  N_10 
REMARK       I    between atoms: N_10  and  C_11 
REMARK    5  A    between atoms: C_11  and  C_13 
REMARK    6  A    between atoms: C_15  and  C_16 
REMARK    7  A    between atoms: C_16  and  C_17 
REMARK    8  A    between atoms: C_17  and  C_18 
REMARK    9  A    between atoms: C_21  and  O_22 
REMARK   10  A    between atoms: C_24  and  O_25 
ROOT
ATOM      1  C   UNL d   1       8.913   3.845 -13.922  0.00  0.00     0.081 A 
ATOM      2  C   UNL d   1       7.697   3.148 -13.982  0.00  0.00     0.003 A 
ATOM      3  C   UNL d   1       7.549   2.029 -14.812  0.00  0.00    -0.020 A 
ATOM      4  C   UNL d   1       8.623   1.625 -15.628  0.00  0.00     0.022 A 
ATOM      5  C   UNL d   1       9.853   2.318 -15.600  0.00  0.00     0.116 A 
ATOM      6  C   UNL d   1       9.997   3.455 -14.761  0.00  0.00     0.121 A 
ENDROOT
BRANCH   1   7
ATOM      7  C   UNL d   1       9.043   4.995 -12.963  0.00  0.00     0.277 C 
ATOM      8  N   UNL d   1       8.242   4.931 -11.882  0.00  0.00    -0.232 NA
ATOM      9  O   UNL d   1       9.841   5.897 -13.152  0.00  0.00    -0.266 OA
BRANCH   8  10
ATOM     10  C   UNL d   1       8.309   5.876 -10.774  0.00  0.00     0.162 C 
BRANCH  10  11
ATOM     11  C   UNL d   1       9.423   5.424  -9.767  0.00  0.00     0.244 C 
ATOM     12  N   UNL d   1      10.242   6.523  -9.262  0.00  0.00     0.141 N 
ATOM     13  C   UNL d   1       9.402   7.216  -8.300  0.00  0.00     0.251 C 
ATOM     14  C   UNL d   1       8.823   6.060  -7.508  0.00  0.00     0.037 C 
ATOM     15  C   UNL d   1       8.848   4.856  -8.460  0.00  0.00     0.037 C 
BRANCH  12  16
ATOM     16  C   UNL d   1      10.725   7.393 -10.318  0.00  0.00     0.277 C 
BRANCH  16  17
ATOM     17  C   UNL d   1      11.871   8.318  -9.922  0.00  0.00     0.009 C 
ATOM     18  C   UNL d   1      12.521   8.337  -8.743  0.00  0.00    -0.003 C 
ENDBRANCH  16  17
ENDBRANCH  12  16
ENDBRANCH  10  11
ENDBRANCH   8  10
ENDBRANCH   1   7
BRANCH   6  19
ATOM     19  O   UNL d   1      11.192   4.130 -14.744  0.00  0.00    -0.326 OA
ATOM     20  C   UNL d   1      11.455   4.877 -15.928  0.00  0.00     0.181 C 
ENDBRANCH   6  19
BRANCH   5  21
ATOM     21  O   UNL d   1      10.955   1.942 -16.346  0.00  0.00    -0.326 OA
ATOM     22  C   UNL d   1      10.842   0.801 -17.178  0.00  0.00     0.181 C 
ENDBRANCH   5  21
BRANCH   3  23
ATOM     23  C   UNL d   1       6.244   1.264 -14.814  0.00  0.00     0.029 C 
BRANCH  23  24
ATOM     24  C   UNL d   1       6.372  -0.135 -14.207  0.00  0.00     0.043 C 
BRANCH  24  25
ATOM     25  C   UNL d   1       5.088  -0.949 -14.379  0.00  0.00     0.194 C 
ATOM     26  F   UNL d   1       4.101  -0.413 -13.661  0.00  0.00    -0.234 F 
ENDBRANCH  24  25
ENDBRANCH  23  24
ENDBRANCH   3  23
TORSDOF 10
