REMARK  7 active torsions:
REMARK  status: ('A' for Active; 'I' for Inactive)
REMARK    1  A    between atoms: C_8  and  O_9 
REMARK    2  A    between atoms: O_9  and  C_10 
REMARK    3  A    between atoms: C_10  and  C_11 
REMARK    4  A    between atoms: C_11  and  C_12 
REMARK    5  A    between atoms: C_12  and  C_13 
REMARK    6  A    between atoms: C_13  and  N_14 
REMARK    7  A    between atoms: N_17  and  C_18 
ROOT
ATOM      1  C   UNL d   1       9.308   6.665 -11.594  0.00  0.00     0.038 C 
ENDROOT
BRANCH   1   2
ATOM      2  C   UNL d   1       9.463   7.737 -10.507  0.00  0.00     0.035 C 
BRANCH   2   3
ATOM      3  C   UNL d   1      10.896   8.311 -10.360  0.00  0.00     0.149 C 
BRANCH   3   4
ATOM      4  O   UNL d   1      11.017   9.150  -9.205  0.00  0.00    -0.331 OA
BRANCH   4   5
ATOM      5  C   UNL d   1      11.102   8.532  -7.986  0.00  0.00     0.096 A 
ATOM      6  C   UNL d   1      11.126   7.136  -7.866  0.00  0.00     0.024 A 
ATOM      7  C   UNL d   1      11.330   6.556  -6.619  0.00  0.00     0.004 A 
ATOM      8  C   UNL d   1      11.469   7.351  -5.473  0.00  0.00     0.018 A 
ATOM      9  C   UNL d   1      11.685   6.706  -4.253  0.00  0.00     0.005 A 
ATOM     10  C   UNL d   1      11.405   8.767  -5.552  0.00  0.00     0.086 A 
ATOM     11  C   UNL d   1      11.878   7.481  -3.116  0.00  0.00     0.047 A 
ATOM     12  C   UNL d   1      11.820   8.881  -3.262  0.00  0.00     0.213 A 
ATOM     13  O   UNL d   1      11.870   9.624  -2.152  0.00  0.00    -0.169 OA
ATOM     14  N   UNL d   1      11.576   9.514  -4.435  0.00  0.00    -0.220 NA
ATOM     15  C   UNL d   1      11.225   9.345  -6.827  0.00  0.00     0.043 A 
ENDBRANCH   4   5
ENDBRANCH   3   4
ENDBRANCH   2   3
ENDBRANCH   1   2
BRANCH   1  16
ATOM     16  C   UNL d   1       7.954   5.916 -11.504  0.00  0.00     0.251 C 
BRANCH  16  17
ATOM     17  N   UNL d   1       7.635   5.213 -12.746  0.00  0.00     0.141 N 
ATOM     18  C   UNL d   1       8.613   4.154 -13.011  0.00  0.00     0.274 C 
ATOM     19  C   UNL d   1       8.280   3.442 -14.329  0.00  0.00     0.137 C 
ATOM     20  N   UNL d   1       6.922   2.947 -14.277  0.00  0.00    -0.344 N 
ATOM     21  C   UNL d   1       5.872   3.873 -13.855  0.00  0.00     0.137 C 
ATOM     22  C   UNL d   1       6.297   4.633 -12.587  0.00  0.00     0.274 C 
BRANCH  20  23
ATOM     23  C   UNL d   1       6.612   1.639 -14.661  0.00  0.00     0.068 A 
ATOM     24  C   UNL d   1       6.961   1.077 -15.919  0.00  0.00     0.084 A 
ATOM     25  C   UNL d   1       6.556  -0.232 -16.246  0.00  0.00     0.070 A 
ATOM     26 CL   UNL d   1       7.840   1.954 -17.139  0.00  0.00    -0.080 Cl
ATOM     27  C   UNL d   1       5.836  -0.990 -15.301  0.00  0.00     0.012 A 
ATOM     28 CL   UNL d   1       6.896  -0.892 -17.803  0.00  0.00    -0.081 Cl
ATOM     29  C   UNL d   1       5.485  -0.429 -14.063  0.00  0.00     0.002 A 
ATOM     30  C   UNL d   1       5.860   0.882 -13.745  0.00  0.00     0.018 A 
ENDBRANCH  20  23
ENDBRANCH  16  17
ENDBRANCH   1  16
TORSDOF 7
