REMARK  7 active torsions:
REMARK  status: ('A' for Active; 'I' for Inactive)
REMARK    1  A    between atoms: C_4  and  C_5 
REMARK    2  A    between atoms: N_13  and  C_14 
REMARK    3  A    between atoms: C_14  and  C_15 
REMARK    4  A    between atoms: C_15  and  C_16 
REMARK    5  A    between atoms: C_16  and  S_17 
REMARK    6  A    between atoms: S_17  and  C_18 
REMARK    7  A    between atoms: C_21  and  C_22 
ROOT
ATOM      1  C   UNL d   1      14.009   1.740 -19.825  0.00  0.00     0.020 A 
ATOM      2  C   UNL d   1      14.419   3.075 -20.044  0.00  0.00     0.001 A 
ATOM      3  C   UNL d   1      14.053   4.092 -19.142  0.00  0.00    -0.004 A 
ATOM      4  C   UNL d   1      13.273   3.797 -18.004  0.00  0.00    -0.024 A 
ATOM      5  C   UNL d   1      12.853   2.468 -17.780  0.00  0.00    -0.024 A 
ATOM      6  C   UNL d   1      13.214   1.456 -18.696  0.00  0.00    -0.003 A 
ATOM      7  C   UNL d   1      12.047   2.100 -16.548  0.00  0.00     0.061 C 
ATOM      8  C   UNL d   1      10.687   2.802 -16.479  0.00  0.00     0.255 C 
ATOM      9  N   UNL d   1      10.763   4.164 -15.955  0.00  0.00     0.138 N 
ATOM     10  C   UNL d   1      11.382   5.111 -16.887  0.00  0.00     0.255 C 
ATOM     11  C   UNL d   1      12.901   4.913 -17.041  0.00  0.00     0.061 C 
ENDROOT
BRANCH   9  12
ATOM     12  C   UNL d   1       9.407   4.613 -15.647  0.00  0.00     0.251 C 
BRANCH  12  13
ATOM     13  C   UNL d   1       9.328   5.172 -14.224  0.00  0.00     0.047 C 
BRANCH  13  14
ATOM     14  C   UNL d   1       9.111   4.095 -13.149  0.00  0.00     0.067 C 
BRANCH  14  15
ATOM     15  S   UNL d   1       7.885   4.634 -11.919  0.00  0.00    -0.075 SA
BRANCH  15  16
ATOM     16  C   UNL d   1       8.785   5.924 -11.118  0.00  0.00     0.193 A 
ATOM     17  N   UNL d   1       9.066   5.907  -9.807  0.00  0.00    -0.292 N 
ATOM     18  C   UNL d   1       9.784   7.072  -9.651  0.00  0.00     0.143 A 
ATOM     19  C   UNL d   1       8.654   4.902  -8.834  0.00  0.00     0.134 C 
ATOM     20  N   UNL d   1       9.838   7.759 -10.794  0.00  0.00    -0.133 NA
ATOM     21  N   UNL d   1       9.226   7.008 -11.752  0.00  0.00    -0.122 NA
BRANCH  18  22
ATOM     22  C   UNL d   1      10.344   7.658  -8.356  0.00  0.00     0.053 C 
ATOM     23  C   UNL d   1       9.407   8.771  -7.847  0.00  0.00     0.008 C 
ATOM     24  C   UNL d   1      11.727   8.296  -8.580  0.00  0.00     0.008 C 
ATOM     25  C   UNL d   1      10.474   6.608  -7.220  0.00  0.00     0.008 C 
ENDBRANCH  18  22
ENDBRANCH  15  16
ENDBRANCH  14  15
ENDBRANCH  13  14
ENDBRANCH  12  13
ENDBRANCH   9  12
BRANCH   1  26
ATOM     26  C   UNL d   1      14.388   0.659 -20.748  0.00  0.00     0.110 A 
ATOM     27  C   UNL d   1      13.835  -0.651 -20.857  0.00  0.00     0.044 A 
ATOM     28  C   UNL d   1      14.546  -1.231 -21.867  0.00  0.00     0.105 A 
ATOM     29  C   UNL d   1      14.491  -2.575 -22.510  0.00  0.00     0.061 C 
ATOM     30  O   UNL d   1      15.471  -0.363 -22.346  0.00  0.00    -0.215 OA
ATOM     31  N   UNL d   1      15.366   0.831 -21.627  0.00  0.00    -0.127 NA
ENDBRANCH   1  26
TORSDOF 7
