REMARK  6 active torsions:
REMARK  status: ('A' for Active; 'I' for Inactive)
REMARK    1  A    between atoms: O_2  and  C_3 
REMARK    2  A    between atoms: C_6  and  C_7 
REMARK       I    between atoms: C_7  and  N_9 
REMARK    3  A    between atoms: N_12  and  C_13 
REMARK    4  A    between atoms: C_13  and  C_14 
REMARK    5  A    between atoms: C_14  and  O_15 
REMARK    6  A    between atoms: O_15  and  C_16 
ROOT
ATOM      1  C   UNL d   1       9.068   0.348 -16.700  0.00  0.00     0.257 C 
ATOM      2  O   UNL d   1       9.233  -0.365 -17.692  0.00  0.00    -0.267 OA
ATOM      3  N   UNL d   1       9.989   1.270 -16.312  0.00  0.00    -0.312 N 
ATOM      4  C   UNL d   1      11.331   1.304 -16.903  0.00  0.00     0.140 C 
ATOM      5  C   UNL d   1      11.657   2.717 -17.405  0.00  0.00     0.274 C 
ATOM      6  N   UNL d   1      11.526   3.687 -16.317  0.00  0.00     0.144 N 
ATOM      7  C   UNL d   1      10.152   3.682 -15.837  0.00  0.00     0.274 C 
ATOM      8  C   UNL d   1       9.795   2.307 -15.287  0.00  0.00     0.140 C 
ENDROOT
BRANCH   1   9
ATOM      9  C   UNL d   1       7.813   0.200 -15.888  0.00  0.00     0.056 A 
ATOM     10  C   UNL d   1       7.814   0.137 -14.478  0.00  0.00     0.007 A 
ATOM     11  C   UNL d   1       6.611  -0.049 -13.768  0.00  0.00     0.024 A 
ATOM     12  C   UNL d   1       5.393  -0.235 -14.453  0.00  0.00     0.094 A 
ATOM     13  C   UNL d   1       5.410  -0.237 -15.880  0.00  0.00     0.024 A 
ATOM     14  C   UNL d   1       6.609  -0.014 -16.583  0.00  0.00     0.007 A 
BRANCH  12  15
ATOM     15  O   UNL d   1       4.267  -0.414 -13.690  0.00  0.00    -0.328 OA
ATOM     16  C   UNL d   1       3.091  -0.796 -14.363  0.00  0.00     0.181 C 
ENDBRANCH  12  15
ENDBRANCH   1   9
BRANCH   6  17
ATOM     17  C   UNL d   1      11.836   5.019 -16.827  0.00  0.00     0.283 C 
BRANCH  17  18
ATOM     18  C   UNL d   1      12.220   5.978 -15.677  0.00  0.00     0.184 C 
BRANCH  18  19
ATOM     19  O   UNL d   1      12.690   7.210 -16.197  0.00  0.00    -0.327 OA
BRANCH  19  20
ATOM     20  C   UNL d   1      13.874   7.216 -16.896  0.00  0.00     0.113 A 
ATOM     21  C   UNL d   1      14.175   8.349 -17.685  0.00  0.00     0.123 A 
ATOM     22  N   UNL d   1      15.289   8.463 -18.444  0.00  0.00    -0.240 NA
ATOM     23  C   UNL d   1      16.162   7.437 -18.442  0.00  0.00     0.099 A 
ATOM     24  C   UNL d   1      15.970   6.264 -17.689  0.00  0.00     0.023 A 
ATOM     25  C   UNL d   1      14.813   6.156 -16.898  0.00  0.00     0.027 A 
ENDBRANCH  19  20
ENDBRANCH  18  19
ENDBRANCH  17  18
ENDBRANCH   6  17
TORSDOF 6
