REMARK  7 active torsions:
REMARK  status: ('A' for Active; 'I' for Inactive)
REMARK    1  A    between atoms: C_2  and  C_3 
REMARK    2  A    between atoms: C_2  and  C_23 
REMARK    3  A    between atoms: C_3  and  C_4 
REMARK    4  A    between atoms: C_4  and  C_5 
REMARK    5  A    between atoms: C_5  and  C_6 
REMARK    6  A    between atoms: C_6  and  N_7 
REMARK    7  A    between atoms: C_13  and  C_15 
ROOT
ATOM      1  N   UNL d   1       9.283   4.425 -13.610  0.00  0.00     0.133 N 
ATOM      2  C   UNL d   1       8.321   5.501 -13.742  0.00  0.00     0.222 C 
ATOM      3  C   UNL d   1       6.939   4.866 -13.530  0.00  0.00     0.035 C 
ATOM      4  C   UNL d   1       7.211   3.663 -12.652  0.00  0.00     0.035 C 
ATOM      5  C   UNL d   1       8.739   3.735 -12.454  0.00  0.00     0.222 C 
ATOM      6  C   UNL d   1       9.133   4.527 -11.183  0.00  0.00     0.068 C 
ATOM      7  C   UNL d   1       8.722   6.011 -11.204  0.00  0.00     0.149 C 
ATOM      8  O   UNL d   1       7.349   5.990 -10.830  0.00  0.00    -0.221 OA
ATOM      9  C   UNL d   1       8.752   6.528 -12.672  0.00  0.00     0.068 C 
ENDROOT
BRANCH   1  10
ATOM     10  C   UNL d   1       9.297   3.529 -14.758  0.00  0.00     0.250 C 
BRANCH  10  11
ATOM     11  C   UNL d   1      10.571   2.650 -14.727  0.00  0.00     0.036 C 
BRANCH  11  12
ATOM     12  C   UNL d   1      10.516   1.457 -15.692  0.00  0.00     0.010 C 
BRANCH  12  13
ATOM     13  C   UNL d   1       9.720   0.238 -15.135  0.00  0.00     0.071 C 
BRANCH  13  14
ATOM     14  C   UNL d   1       8.189   0.347 -15.134  0.00  0.00     0.197 C 
ATOM     15  O   UNL d   1       7.568   0.332 -14.076  0.00  0.00    -0.289 OA
BRANCH  14  16
ATOM     16  C   UNL d   1       7.483   0.396 -16.454  0.00  0.00     0.145 A 
ATOM     17  S   UNL d   1       5.769  -0.004 -16.521  0.00  0.00    -0.064 SA
ATOM     18  C   UNL d   1       5.813   0.298 -18.257  0.00  0.00     0.049 A 
ATOM     19  C   UNL d   1       7.115   0.691 -18.641  0.00  0.00     0.088 A 
ATOM     20  C   UNL d   1       4.777   0.193 -19.199  0.00  0.00     0.008 A 
ATOM     21  N   UNL d   1       8.054   0.709 -17.608  0.00  0.00    -0.236 NA
ATOM     22  C   UNL d   1       7.355   1.032 -19.985  0.00  0.00     0.020 A 
ATOM     23  C   UNL d   1       6.331   0.938 -20.942  0.00  0.00     0.002 A 
ATOM     24  C   UNL d   1       5.039   0.513 -20.552  0.00  0.00     0.001 A 
ENDBRANCH  14  16
ENDBRANCH  13  14
ENDBRANCH  12  13
ENDBRANCH  11  12
ENDBRANCH  10  11
ENDBRANCH   1  10
BRANCH   7  25
ATOM     25  C   UNL d   1       9.490   6.860 -10.182  0.00  0.00     0.005 A 
ATOM     26  C   UNL d   1       9.945   8.158 -10.513  0.00  0.00    -0.001 A 
ATOM     27  C   UNL d   1      10.592   8.950  -9.560  0.00  0.00     0.011 A 
ATOM     28  C   UNL d   1      10.724   8.488  -8.231  0.00  0.00     0.058 A 
ATOM     29  C   UNL d   1      10.255   7.200  -7.891  0.00  0.00     0.011 A 
ATOM     30 CL   UNL d   1      11.434   9.488  -7.004  0.00  0.00    -0.082 Cl
ATOM     31  C   UNL d   1       9.633   6.401  -8.850  0.00  0.00    -0.001 A 
ENDBRANCH   7  25
TORSDOF 7
