REMARK  6 active torsions:
REMARK  status: ('A' for Active; 'I' for Inactive)
REMARK    1  A    between atoms: O_2  and  C_3 
REMARK    2  A    between atoms: C_7  and  C_8 
REMARK       I    between atoms: C_8  and  N_10 
REMARK    3  A    between atoms: N_10  and  C_12 
REMARK    4  A    between atoms: C_12  and  C_13 
REMARK    5  A    between atoms: C_13  and  N_14 
REMARK    6  A    between atoms: N_17  and  C_18 
ROOT
ATOM      1  C   UNL d   1       9.499   5.899 -10.828  0.00  0.00     0.274 C 
ENDROOT
BRANCH   1   2
ATOM      2  C   UNL d   1       8.242   5.891 -11.713  0.00  0.00     0.140 C 
BRANCH   2   3
ATOM      3  N   UNL d   1       8.233   4.912 -12.815  0.00  0.00    -0.313 N 
ATOM      4  C   UNL d   1       9.342   4.715 -13.609  0.00  0.00     0.257 C 
ATOM      5  O   UNL d   1      10.405   5.283 -13.458  0.00  0.00    -0.267 OA
ATOM      6  C   UNL d   1       6.893   4.350 -13.029  0.00  0.00     0.129 C 
BRANCH   4   7
ATOM      7  C   UNL d   1       9.271   3.742 -14.763  0.00  0.00     0.058 A 
ATOM      8  C   UNL d   1       9.866   4.073 -16.004  0.00  0.00     0.005 A 
ATOM      9  C   UNL d   1       9.816   3.149 -17.074  0.00  0.00     0.002 A 
ATOM     10  C   UNL d   1       9.153   1.905 -16.919  0.00  0.00     0.024 A 
ATOM     11  C   UNL d   1       8.579   1.552 -15.662  0.00  0.00     0.094 A 
ATOM     12  C   UNL d   1       8.719   2.472 -14.597  0.00  0.00     0.029 A 
BRANCH  11  13
ATOM     13  O   UNL d   1       7.918   0.336 -15.569  0.00  0.00    -0.328 OA
ATOM     14  C   UNL d   1       7.332   0.018 -14.301  0.00  0.00     0.181 C 
ENDBRANCH  11  13
ENDBRANCH   4   7
ENDBRANCH   2   3
ENDBRANCH   1   2
BRANCH   1  15
ATOM     15  N   UNL d   1       9.516   6.968  -9.841  0.00  0.00     0.143 N 
ATOM     16  C   UNL d   1       8.872   6.519  -8.606  0.00  0.00     0.274 C 
ATOM     17  C   UNL d   1       8.859   7.663  -7.562  0.00  0.00     0.137 C 
ATOM     18  N   UNL d   1      10.200   8.169  -7.360  0.00  0.00    -0.344 N 
ATOM     19  C   UNL d   1      10.978   8.501  -8.531  0.00  0.00     0.137 C 
ATOM     20  C   UNL d   1      10.895   7.338  -9.531  0.00  0.00     0.274 C 
BRANCH  18  21
ATOM     21  C   UNL d   1      10.790   8.169  -6.082  0.00  0.00     0.056 A 
ATOM     22  C   UNL d   1      11.061   6.964  -5.415  0.00  0.00     0.018 A 
ATOM     23  C   UNL d   1      11.656   7.004  -4.129  0.00  0.00     0.013 A 
ATOM     24  C   UNL d   1      11.943   8.248  -3.538  0.00  0.00     0.058 A 
ATOM     25  C   UNL d   1      11.641   9.443  -4.205  0.00  0.00     0.013 A 
ATOM     26 CL   UNL d   1      12.662   8.348  -1.976  0.00  0.00    -0.082 Cl
ATOM     27  C   UNL d   1      11.081   9.405  -5.500  0.00  0.00     0.018 A 
ENDBRANCH  18  21
ENDBRANCH   1  15
TORSDOF 6
