REMARK  4 active torsions:
REMARK  status: ('A' for Active; 'I' for Inactive)
REMARK    1  A    between atoms: C_8  and  C_9 
REMARK    2  A    between atoms: C_9  and  C_10 
REMARK    3  A    between atoms: C_10  and  N_11 
REMARK    4  A    between atoms: N_14  and  C_15 
ROOT
ATOM      1  C   UNL d   1       8.524   3.668 -14.107  0.00  0.00     0.255 C 
ENDROOT
BRANCH   1   2
ATOM      2  C   UNL d   1       8.415   2.135 -14.041  0.00  0.00     0.068 C 
BRANCH   2   3
ATOM      3  C   UNL d   1       8.743   1.446 -15.361  0.00  0.00     0.050 A 
ATOM      4  C   UNL d   1      10.010   1.360 -15.855  0.00  0.00     0.061 A 
ATOM      5  C   UNL d   1      11.241   1.949 -15.175  0.00  0.00     0.052 C 
ATOM      6  N   UNL d   1      10.269   0.680 -17.043  0.00  0.00    -0.232 NA
ATOM      7  C   UNL d   1       9.306   0.108 -17.690  0.00  0.00     0.184 A 
ATOM      8  C   UNL d   1       9.620  -0.681 -18.962  0.00  0.00     0.313 C 
ATOM      9  N   UNL d   1       7.962   0.136 -17.236  0.00  0.00    -0.280 N 
ATOM     10  C   UNL d   1       8.428  -0.924 -19.888  0.00  0.00     0.076 C 
ATOM     11  F   UNL d   1      10.548  -0.048 -19.681  0.00  0.00    -0.196 F 
ATOM     12  F   UNL d   1      10.122  -1.863 -18.607  0.00  0.00    -0.196 F 
ATOM     13  C   UNL d   1       7.273  -1.486 -19.080  0.00  0.00     0.031 C 
ATOM     14  C   UNL d   1       6.858  -0.457 -18.029  0.00  0.00     0.111 C 
ATOM     15  C   UNL d   1       7.630   0.799 -16.088  0.00  0.00     0.259 A 
ATOM     16  O   UNL d   1       6.458   0.855 -15.703  0.00  0.00    -0.267 OA
ENDBRANCH   2   3
ENDBRANCH   1   2
BRANCH   1  17
ATOM     17  N   UNL d   1       8.358   4.271 -12.793  0.00  0.00     0.141 N 
ATOM     18  C   UNL d   1       9.552   4.076 -11.954  0.00  0.00     0.274 C 
ATOM     19  C   UNL d   1       9.346   4.721 -10.564  0.00  0.00     0.138 C 
ATOM     20  N   UNL d   1       9.047   6.133 -10.724  0.00  0.00    -0.329 N 
ATOM     21  C   UNL d   1       7.952   6.406 -11.643  0.00  0.00     0.138 C 
ATOM     22  C   UNL d   1       8.191   5.708 -12.984  0.00  0.00     0.274 C 
BRANCH  20  23
ATOM     23  C   UNL d   1       9.715   7.160 -10.057  0.00  0.00     0.148 A 
ATOM     24  C   UNL d   1       9.832   7.225  -8.613  0.00  0.00     0.042 A 
ATOM     25  C   UNL d   1      10.570   8.388  -8.249  0.00  0.00     0.050 A 
ATOM     26  C   UNL d   1       9.331   6.426  -7.558  0.00  0.00     0.004 A 
ATOM     27  S   UNL d   1      11.043   9.193  -9.705  0.00  0.00     0.015 SA
ATOM     28  C   UNL d   1      10.820   8.748  -6.919  0.00  0.00     0.008 A 
ATOM     29  N   UNL d   1      10.227   8.171 -10.739  0.00  0.00    -0.192 NA
ATOM     30  C   UNL d   1      10.313   7.939  -5.894  0.00  0.00     0.001 A 
ATOM     31  C   UNL d   1       9.561   6.792  -6.217  0.00  0.00     0.000 A 
ENDBRANCH  20  23
ENDBRANCH   1  17
TORSDOF 4
