REMARK  12 active torsions:
REMARK  status: ('A' for Active; 'I' for Inactive)
REMARK    1  A    between atoms: C_2  and  C_3 
REMARK    2  A    between atoms: C_3  and  N_4 
REMARK    3  A    between atoms: N_4  and  C_5 
REMARK    4  A    between atoms: N_4  and  C_22 
REMARK    5  A    between atoms: C_5  and  C_6 
REMARK    6  A    between atoms: C_6  and  C_7 
REMARK    7  A    between atoms: C_7  and  C_8 
REMARK    8  A    between atoms: C_8  and  N_9 
REMARK       I    between atoms: N_9  and  C_10 
REMARK    9  A    between atoms: C_10  and  C_12 
REMARK   10  A    between atoms: C_22  and  C_23 
REMARK   11  A    between atoms: C_25  and  C_26 
REMARK   12  A    between atoms: C_29  and  C_30 
ROOT
ATOM      1  N   UNL d   1       8.819   3.584 -13.525  0.00  0.00     0.137 N 
ENDROOT
BRANCH   1   2
ATOM      2  C   UNL d   1       7.457   4.112 -13.635  0.00  0.00     0.250 C 
BRANCH   2   3
ATOM      3  C   UNL d   1       6.620   3.952 -12.357  0.00  0.00     0.035 C 
ATOM      4  C   UNL d   1       5.458   4.929 -12.313  0.00  0.00     0.002 C 
ENDBRANCH   2   3
ENDBRANCH   1   2
BRANCH   1   5
ATOM      5  C   UNL d   1       9.552   4.173 -12.417  0.00  0.00     0.250 C 
BRANCH   5   6
ATOM      6  C   UNL d   1       9.347   5.702 -12.271  0.00  0.00     0.037 C 
BRANCH   6   7
ATOM      7  C   UNL d   1       9.510   6.091 -10.803  0.00  0.00     0.029 C 
BRANCH   7   8
ATOM      8  C   UNL d   1       9.814   7.572 -10.598  0.00  0.00     0.129 C 
BRANCH   8   9
ATOM      9  N   UNL d   1      10.086   7.937  -9.214  0.00  0.00    -0.234 NA
ATOM     10  C   UNL d   1      10.180   7.147  -8.133  0.00  0.00     0.275 C 
ATOM     11  O   UNL d   1       9.950   5.932  -8.133  0.00  0.00    -0.266 OA
BRANCH  10  12
ATOM     12  C   UNL d   1      10.637   7.825  -6.871  0.00  0.00     0.058 A 
ATOM     13  C   UNL d   1      11.056   7.034  -5.791  0.00  0.00     0.005 A 
ATOM     14  C   UNL d   1      11.474   7.612  -4.583  0.00  0.00     0.000 A 
ATOM     15  C   UNL d   1      11.476   9.021  -4.457  0.00  0.00     0.000 A 
ATOM     16  C   UNL d   1      11.872   6.788  -3.512  0.00  0.00     0.000 A 
ATOM     17  C   UNL d   1      11.062   9.834  -5.535  0.00  0.00     0.000 A 
ATOM     18  C   UNL d   1      11.881   9.587  -3.241  0.00  0.00     0.000 A 
ATOM     19  C   UNL d   1      10.649   9.240  -6.740  0.00  0.00     0.005 A 
ATOM     20  C   UNL d   1      12.264   8.778  -2.162  0.00  0.00     0.000 A 
ATOM     21  C   UNL d   1      12.267   7.376  -2.301  0.00  0.00     0.000 A 
ENDBRANCH  10  12
ENDBRANCH   8   9
ENDBRANCH   7   8
ENDBRANCH   6   7
ENDBRANCH   5   6
ENDBRANCH   1   5
BRANCH   1  22
ATOM     22  C   UNL d   1       9.589   3.823 -14.735  0.00  0.00     0.251 C 
BRANCH  22  23
ATOM     23  C   UNL d   1       9.170   2.932 -15.893  0.00  0.00     0.038 A 
ATOM     24  C   UNL d   1       9.964   3.003 -17.176  0.00  0.00     0.024 A 
ATOM     25  C   UNL d   1      10.040   1.768 -16.304  0.00  0.00     0.007 A 
BRANCH  24  26
ATOM     26  C   UNL d   1      11.130   3.939 -17.281  0.00  0.00    -0.022 A 
ATOM     27  C   UNL d   1      12.439   3.421 -17.350  0.00  0.00    -0.004 A 
ATOM     28  C   UNL d   1      13.544   4.288 -17.385  0.00  0.00     0.004 A 
ATOM     29  C   UNL d   1      13.357   5.685 -17.363  0.00  0.00     0.071 A 
ATOM     30  C   UNL d   1      12.046   6.207 -17.308  0.00  0.00     0.004 A 
ATOM     31  C   UNL d   1      10.938   5.338 -17.277  0.00  0.00    -0.004 A 
BRANCH  29  32
ATOM     32  C   UNL d   1      14.570   6.599 -17.411  0.00  0.00     0.419 C 
ATOM     33  F   UNL d   1      15.421   6.274 -16.438  0.00  0.00    -0.166 F 
ATOM     34  F   UNL d   1      15.182   6.445 -18.584  0.00  0.00    -0.166 F 
ATOM     35  F   UNL d   1      14.233   7.880 -17.272  0.00  0.00    -0.166 F 
ENDBRANCH  29  32
ENDBRANCH  24  26
ENDBRANCH  22  23
ENDBRANCH   1  22
TORSDOF 12
