REMARK  1 active torsions:
REMARK  status: ('A' for Active; 'I' for Inactive)
REMARK    1  A    between atoms: C_5  and  N_6 
ROOT
ATOM      1  N   UNL d   1      11.066   8.595  -6.163  0.00  0.00    -0.256 N 
ATOM      2  C   UNL d   1      11.444   7.383  -5.673  0.00  0.00     0.264 A 
ATOM      3  O   UNL d   1      11.504   6.304  -6.256  0.00  0.00    -0.267 OA
ATOM      4  C   UNL d   1      11.829   7.590  -4.263  0.00  0.00     0.061 A 
ATOM      5  C   UNL d   1      12.258   6.651  -3.325  0.00  0.00     0.005 A 
ATOM      6  C   UNL d   1      12.614   7.154  -2.061  0.00  0.00     0.000 A 
ATOM      7  C   UNL d   1      12.528   8.552  -1.796  0.00  0.00     0.000 A 
ATOM      8  C   UNL d   1      12.060   9.476  -2.764  0.00  0.00     0.005 A 
ATOM      9  C   UNL d   1      11.716   8.928  -4.004  0.00  0.00     0.061 A 
ATOM     10  C   UNL d   1      11.219   9.586  -5.239  0.00  0.00     0.264 A 
ATOM     11  O   UNL d   1      11.001  10.784  -5.363  0.00  0.00    -0.267 OA
ENDROOT
BRANCH   1  12
ATOM     12  C   UNL d   1      10.547   8.831  -7.516  0.00  0.00     0.173 C 
ATOM     13  C   UNL d   1       9.061   8.445  -7.643  0.00  0.00     0.042 C 
ATOM     14  C   UNL d   1       8.874   6.923  -7.704  0.00  0.00     0.092 C 
ATOM     15  C   UNL d   1       9.824   6.290  -8.717  0.00  0.00     0.258 C 
ATOM     16  O   UNL d   1       9.590   5.171  -9.148  0.00  0.00    -0.270 OA
ATOM     17  N   UNL d   1      10.921   6.953  -9.104  0.00  0.00    -0.175 NA
ATOM     18  C   UNL d   1      11.383   8.096  -8.574  0.00  0.00     0.279 C 
ATOM     19  O   UNL d   1      12.479   8.535  -8.893  0.00  0.00    -0.268 OA
ENDBRANCH   1  12
TORSDOF 1
