REMARK  7 active torsions:
REMARK  status: ('A' for Active; 'I' for Inactive)
REMARK    1  A    between atoms: C_2  and  C_3 
REMARK    2  A    between atoms: C_3  and  C_4 
REMARK    3  A    between atoms: C_4  and  N_5 
REMARK    4  A    between atoms: C_11  and  O_12 
REMARK    5  A    between atoms: O_12  and  C_13 
REMARK    6  A    between atoms: C_13  and  C_14 
REMARK    7  A    between atoms: C_13  and  C_21 
ROOT
ATOM      1  C   UNL d   1       9.337   4.666 -12.644  0.00  0.00     0.160 C 
ENDROOT
BRANCH   1   2
ATOM      2  O   UNL d   1       9.824   4.984 -13.942  0.00  0.00    -0.350 OA
BRANCH   2   3
ATOM      3  C   UNL d   1      11.218   4.806 -14.166  0.00  0.00     0.120 C 
ATOM      4  C   UNL d   1      11.676   5.753 -15.302  0.00  0.00     0.063 C 
ATOM      5  C   UNL d   1      11.358   5.203 -16.722  0.00  0.00     0.222 C 
ATOM      6  N   UNL d   1      12.091   3.935 -16.838  0.00  0.00     0.133 N 
ATOM      7  C   UNL d   1       9.876   4.838 -16.922  0.00  0.00     0.035 C 
ATOM      8  C   UNL d   1      11.260   3.041 -16.027  0.00  0.00     0.222 C 
ATOM      9  C   UNL d   1      11.544   3.354 -14.539  0.00  0.00     0.063 C 
ATOM     10  C   UNL d   1       9.823   3.384 -16.476  0.00  0.00     0.035 C 
BRANCH   6  11
ATOM     11  C   UNL d   1      12.152   3.458 -18.216  0.00  0.00     0.250 C 
BRANCH  11  12
ATOM     12  C   UNL d   1      13.227   2.368 -18.350  0.00  0.00     0.035 C 
BRANCH  12  13
ATOM     13  C   UNL d   1      13.281   1.748 -19.753  0.00  0.00     0.002 C 
ATOM     14  C   UNL d   1      12.013   0.956 -20.111  0.00  0.00     0.000 C 
ENDBRANCH  12  13
ENDBRANCH  11  12
ENDBRANCH   6  11
ENDBRANCH   2   3
ENDBRANCH   1   2
BRANCH   1  15
ATOM     15  C   UNL d   1       7.878   4.238 -12.744  0.00  0.00     0.009 A 
ATOM     16  C   UNL d   1       6.897   4.822 -11.914  0.00  0.00     0.001 A 
ATOM     17  C   UNL d   1       5.564   4.387 -11.984  0.00  0.00     0.029 A 
ATOM     18  C   UNL d   1       5.203   3.356 -12.860  0.00  0.00     0.140 A 
ATOM     19  C   UNL d   1       6.160   2.771 -13.693  0.00  0.00     0.029 A 
ATOM     20  F   UNL d   1       3.946   2.888 -12.836  0.00  0.00    -0.204 F 
ATOM     21  C   UNL d   1       7.494   3.192 -13.623  0.00  0.00     0.001 A 
ENDBRANCH   1  15
BRANCH   1  22
ATOM     22  C   UNL d   1       9.525   5.844 -11.700  0.00  0.00     0.009 A 
ATOM     23  C   UNL d   1       9.323   7.156 -12.168  0.00  0.00     0.001 A 
ATOM     24  C   UNL d   1       9.468   8.251 -11.299  0.00  0.00     0.029 A 
ATOM     25  C   UNL d   1       9.848   8.048  -9.957  0.00  0.00     0.140 A 
ATOM     26  C   UNL d   1      10.000   6.737  -9.468  0.00  0.00     0.029 A 
ATOM     27  F   UNL d   1       9.975   9.102  -9.119  0.00  0.00    -0.204 F 
ATOM     28  C   UNL d   1       9.824   5.641 -10.339  0.00  0.00     0.001 A 
ENDBRANCH   1  22
TORSDOF 7
