REMARK  6 active torsions:
REMARK  status: ('A' for Active; 'I' for Inactive)
REMARK    1  A    between atoms: O_2  and  N_3 
REMARK    2  A    between atoms: C_4  and  C_5 
REMARK    3  A    between atoms: C_4  and  C_19 
REMARK    4  A    between atoms: C_5  and  C_6 
REMARK    5  A    between atoms: C_6  and  N_7 
REMARK    6  A    between atoms: N_10  and  C_11 
ROOT
ATOM      1  C   UNL d   1      11.242   3.886 -15.771  0.00  0.00     0.257 C 
ENDROOT
BRANCH   1   2
ATOM      2  C   UNL d   1       9.722   4.161 -15.763  0.00  0.00     0.084 C 
BRANCH   2   3
ATOM      3  C   UNL d   1       9.112   3.971 -14.387  0.00  0.00     0.088 C 
ATOM      4  N   UNL d   1       9.428   4.804 -13.474  0.00  0.00    -0.136 NA
BRANCH   4   5
ATOM      5  O   UNL d   1       8.814   4.517 -12.244  0.00  0.00    -0.234 OA
ATOM      6  C   UNL d   1       8.909   5.664 -11.414  0.00  0.00     0.211 C 
ENDBRANCH   4   5
BRANCH   3   7
ATOM      7  C   UNL d   1       8.115   2.861 -14.259  0.00  0.00     0.026 A 
ATOM      8  C   UNL d   1       8.405   1.501 -14.582  0.00  0.00     0.059 A 
ATOM      9  C   UNL d   1       7.408   0.514 -14.452  0.00  0.00     0.011 A 
ATOM     10 CL   UNL d   1       9.967   0.951 -15.101  0.00  0.00    -0.082 Cl
ATOM     11  C   UNL d   1       6.131   0.827 -13.964  0.00  0.00     0.001 A 
ATOM     12  C   UNL d   1       5.825   2.163 -13.619  0.00  0.00     0.000 A 
ATOM     13  C   UNL d   1       6.811   3.169 -13.793  0.00  0.00     0.002 A 
ENDBRANCH   3   7
ENDBRANCH   2   3
ENDBRANCH   1   2
BRANCH   1  14
ATOM     14  N   UNL d   1      11.755   3.749 -17.140  0.00  0.00     0.141 N 
ATOM     15  C   UNL d   1      11.360   2.454 -17.704  0.00  0.00     0.274 C 
ATOM     16  C   UNL d   1      11.881   2.311 -19.145  0.00  0.00     0.138 C 
ATOM     17  N   UNL d   1      13.326   2.455 -19.150  0.00  0.00    -0.330 N 
ATOM     18  C   UNL d   1      13.822   3.661 -18.510  0.00  0.00     0.138 C 
ATOM     19  C   UNL d   1      13.216   3.799 -17.093  0.00  0.00     0.274 C 
BRANCH  17  20
ATOM     20  C   UNL d   1      14.191   1.459 -19.695  0.00  0.00     0.140 A 
ATOM     21  N   UNL d   1      15.390   1.872 -20.137  0.00  0.00    -0.227 NA
ATOM     22  C   UNL d   1      16.211   0.957 -20.721  0.00  0.00     0.101 A 
ATOM     23  C   UNL d   1      15.875  -0.397 -20.853  0.00  0.00     0.021 A 
ATOM     24  C   UNL d   1      14.630  -0.820 -20.364  0.00  0.00     0.005 A 
ATOM     25  C   UNL d   1      13.768   0.127 -19.765  0.00  0.00     0.037 A 
ENDBRANCH  17  20
ENDBRANCH   1  14
TORSDOF 6
