REMARK  2 active torsions:
REMARK  status: ('A' for Active; 'I' for Inactive)
REMARK    1  A    between atoms: C_5  and  C_6 
REMARK    2  A    between atoms: C_12  and  N_13 
ROOT
ATOM      1  C   UNL d   1       9.760   4.095 -15.715  0.00  0.00    -0.000 A 
ATOM      2  C   UNL d   1      10.924   4.736 -16.213  0.00  0.00     0.001 A 
ATOM      3  C   UNL d   1      11.422   4.413 -17.486  0.00  0.00     0.006 A 
ATOM      4  C   UNL d   1      10.799   3.432 -18.277  0.00  0.00     0.027 A 
ATOM      5  C   UNL d   1       9.631   2.763 -17.801  0.00  0.00     0.015 A 
ATOM      6  C   UNL d   1       9.116   3.169 -16.552  0.00  0.00    -0.002 A 
ATOM      7  C   UNL d   1       8.877   1.609 -18.508  0.00  0.00     0.246 C 
ATOM      8  C   UNL d   1       9.002   1.492 -20.051  0.00  0.00     0.065 C 
ATOM      9  C   UNL d   1       8.973   2.782 -20.823  0.00  0.00    -0.014 A 
ATOM     10  C   UNL d   1       7.844   3.136 -21.589  0.00  0.00    -0.004 A 
ATOM     11  C   UNL d   1       7.849   4.328 -22.334  0.00  0.00    -0.000 A 
ATOM     12  C   UNL d   1       8.986   5.161 -22.314  0.00  0.00     0.001 A 
ATOM     13  C   UNL d   1      10.121   4.803 -21.558  0.00  0.00     0.006 A 
ATOM     14  C   UNL d   1      10.113   3.605 -20.824  0.00  0.00     0.025 A 
ATOM     15  S   UNL d   1      11.502   3.124 -19.866  0.00  0.00    -0.087 SA
ENDROOT
BRANCH   1  16
ATOM     16  C   UNL d   1       9.231   4.406 -14.365  0.00  0.00    -0.000 A 
ATOM     17  C   UNL d   1       9.772   5.462 -13.592  0.00  0.00    -0.000 A 
ATOM     18  C   UNL d   1       9.273   5.796 -12.320  0.00  0.00    -0.004 A 
ATOM     19  C   UNL d   1       8.212   5.047 -11.789  0.00  0.00    -0.022 A 
ATOM     20  C   UNL d   1       7.702   5.363 -10.409  0.00  0.00     0.031 C 
ATOM     21  C   UNL d   1       7.658   3.988 -12.521  0.00  0.00    -0.004 A 
ATOM     22  C   UNL d   1       8.170   3.655 -13.785  0.00  0.00    -0.000 A 
ENDBRANCH   1  16
BRANCH   7  23
ATOM     23  N   UNL d   1       9.137   0.314 -17.828  0.00  0.00     0.144 N 
ATOM     24  C   UNL d   1       8.616   0.241 -16.443  0.00  0.00     0.286 C 
ATOM     25  C   UNL d   1       7.061   0.223 -16.447  0.00  0.00     0.286 C 
ATOM     26  N   UNL d   1       6.525  -0.893 -17.231  0.00  0.00     0.143 N 
ATOM     27  C   UNL d   1       7.067  -0.870 -18.586  0.00  0.00     0.286 C 
ATOM     28  C   UNL d   1       5.065  -0.927 -17.227  0.00  0.00     0.285 C 
ATOM     29  C   UNL d   1       8.610  -0.860 -18.557  0.00  0.00     0.286 C 
ENDBRANCH   7  23
TORSDOF 2
