REMARK  9 active torsions:
REMARK  status: ('A' for Active; 'I' for Inactive)
REMARK    1  A    between atoms: C_3  and  S_4 
REMARK    2  A    between atoms: S_4  and  C_5 
REMARK    3  A    between atoms: C_5  and  C_6 
REMARK    4  A    between atoms: C_6  and  C_7 
REMARK    5  A    between atoms: C_7  and  N_8 
REMARK    6  A    between atoms: N_13  and  C_14 
REMARK    7  A    between atoms: C_18  and  O_19 
REMARK    8  A    between atoms: O_19  and  C_20 
REMARK    9  A    between atoms: C_29  and  C_30 
ROOT
ATOM      1  N   UNL d   1       7.008   1.624 -14.050  0.00  0.00     0.138 N 
ATOM      2  C   UNL d   1       5.867   0.734 -14.223  0.00  0.00     0.252 C 
ATOM      3  C   UNL d   1       6.377  -0.341 -15.178  0.00  0.00     0.052 C 
ATOM      4  C   UNL d   1       5.411  -0.762 -16.291  0.00  0.00     0.021 C 
ATOM      5  C   UNL d   1       6.315  -0.844 -17.513  0.00  0.00     0.077 C 
ATOM      6  N   UNL d   1       7.327   0.191 -17.330  0.00  0.00    -0.252 NA
ATOM      7  C   UNL d   1       7.556   0.307 -15.892  0.00  0.00     0.097 C 
ATOM      8  C   UNL d   1       7.569   1.748 -15.386  0.00  0.00     0.266 C 
ENDROOT
BRANCH   1   9
ATOM      9  C   UNL d   1       6.641   2.901 -13.465  0.00  0.00     0.251 C 
BRANCH   9  10
ATOM     10  C   UNL d   1       7.872   3.794 -13.223  0.00  0.00     0.047 C 
BRANCH  10  11
ATOM     11  C   UNL d   1       7.508   5.012 -12.370  0.00  0.00     0.067 C 
BRANCH  11  12
ATOM     12  S   UNL d   1       8.927   6.144 -12.230  0.00  0.00    -0.075 SA
BRANCH  12  13
ATOM     13  C   UNL d   1       9.217   6.182 -10.483  0.00  0.00     0.193 A 
ATOM     14  N   UNL d   1       9.854   7.208  -9.878  0.00  0.00    -0.287 N 
ATOM     15  C   UNL d   1      10.392   8.409 -10.511  0.00  0.00     0.134 C 
ATOM     16  C   UNL d   1       9.856   6.823  -8.576  0.00  0.00     0.186 A 
ATOM     17  N   UNL d   1       9.283   5.619  -8.411  0.00  0.00    -0.127 NA
ATOM     18  N   UNL d   1       8.883   5.197  -9.651  0.00  0.00    -0.122 NA
BRANCH  16  19
ATOM     19  C   UNL d   1      10.409   7.552  -7.418  0.00  0.00     0.136 A 
ATOM     20  N   UNL d   1      10.820   6.803  -6.363  0.00  0.00    -0.238 NA
ATOM     21  C   UNL d   1      11.328   7.440  -5.282  0.00  0.00     0.120 A 
ATOM     22  C   UNL d   1      11.461   8.848  -5.259  0.00  0.00     0.120 A 
ATOM     23  N   UNL d   1      11.059   9.612  -6.296  0.00  0.00    -0.239 NA
ATOM     24  C   UNL d   1      10.525   8.964  -7.358  0.00  0.00     0.121 A 
ENDBRANCH  16  19
ENDBRANCH  12  13
ENDBRANCH  11  12
ENDBRANCH  10  11
ENDBRANCH   9  10
ENDBRANCH   1   9
BRANCH   6  25
ATOM     25  C   UNL d   1       8.452   0.182 -18.186  0.00  0.00     0.038 A 
ATOM     26  C   UNL d   1       9.597   0.971 -17.896  0.00  0.00     0.036 A 
ATOM     27  C   UNL d   1      10.749   0.944 -18.718  0.00  0.00     0.103 A 
ATOM     28  C   UNL d   1      10.751   0.110 -19.855  0.00  0.00     0.025 A 
ATOM     29  C   UNL d   1       9.620  -0.664 -20.171  0.00  0.00     0.003 A 
ATOM     30  C   UNL d   1       8.480  -0.624 -19.353  0.00  0.00     0.011 A 
BRANCH  27  31
ATOM     31  O   UNL d   1      11.894   1.679 -18.482  0.00  0.00    -0.253 OA
BRANCH  31  32
ATOM     32  C   UNL d   1      11.963   2.590 -17.469  0.00  0.00     0.530 C 
ATOM     33  F   UNL d   1      13.164   3.212 -17.507  0.00  0.00    -0.144 F 
ATOM     34  F   UNL d   1      11.017   3.557 -17.590  0.00  0.00    -0.144 F 
ATOM     35  F   UNL d   1      11.857   2.006 -16.250  0.00  0.00    -0.144 F 
ENDBRANCH  31  32
ENDBRANCH  27  31
ENDBRANCH   6  25
TORSDOF 9
