REMARK  7 active torsions:
REMARK  status: ('A' for Active; 'I' for Inactive)
REMARK    1  A    between atoms: C_2  and  O_3 
REMARK    2  A    between atoms: O_3  and  C_4 
REMARK       I    between atoms: C_4  and  N_6 
REMARK    3  A    between atoms: C_9  and  N_10 
REMARK    4  A    between atoms: N_10  and  C_11 
REMARK    5  A    between atoms: C_11  and  C_12 
REMARK    6  A    between atoms: C_12  and  N_13 
REMARK       I    between atoms: N_13  and  C_14 
REMARK    7  A    between atoms: C_14  and  C_16 
ROOT
ATOM      1  N   UNL d   1      10.410   6.956  -9.810  0.00  0.00     0.339 N 
ENDROOT
BRANCH   1   2
ATOM      2  C   UNL d   1      10.118   7.607  -8.542  0.00  0.00     0.261 C 
ATOM      3  C   UNL d   1      11.060   8.812  -8.369  0.00  0.00     0.060 C 
ATOM      4  C   UNL d   1      10.859   9.471  -6.998  0.00  0.00     0.108 C 
ATOM      5  N   UNL d   1      10.977   8.485  -5.917  0.00  0.00    -0.297 N 
ATOM      6  C   UNL d   1      11.859   8.681  -4.848  0.00  0.00     0.365 C 
ATOM      7  C   UNL d   1      10.056   7.335  -6.032  0.00  0.00     0.108 C 
ATOM      8  O   UNL d   1      12.682   9.585  -4.751  0.00  0.00    -0.238 OA
ATOM      9  C   UNL d   1      10.284   6.627  -7.368  0.00  0.00     0.060 C 
BRANCH   6  10
ATOM     10  O   UNL d   1      11.678   7.728  -3.912  0.00  0.00    -0.285 OA
BRANCH  10  11
ATOM     11  C   UNL d   1      12.440   7.756  -2.718  0.00  0.00     0.154 C 
ATOM     12  C   UNL d   1      12.465   6.346  -2.143  0.00  0.00     0.035 C 
ENDBRANCH  10  11
ENDBRANCH   6  10
ENDBRANCH   1   2
BRANCH   1  13
ATOM     13  C   UNL d   1       9.377   6.008 -10.215  0.00  0.00     0.316 C 
BRANCH  13  14
ATOM     14  C   UNL d   1       9.271   6.009 -11.743  0.00  0.00     0.167 C 
BRANCH  14  15
ATOM     15  N   UNL d   1       8.398   4.942 -12.208  0.00  0.00    -0.232 NA
ATOM     16  C   UNL d   1       8.424   4.438 -13.453  0.00  0.00     0.275 C 
ATOM     17  O   UNL d   1       9.154   4.882 -14.341  0.00  0.00    -0.266 OA
BRANCH  16  18
ATOM     18  C   UNL d   1       7.554   3.233 -13.678  0.00  0.00     0.054 A 
ATOM     19  C   UNL d   1       7.993   2.117 -14.454  0.00  0.00    -0.017 A 
ATOM     20  C   UNL d   1       7.150   0.999 -14.614  0.00  0.00    -0.004 A 
ATOM     21  C   UNL d   1       9.374   2.053 -15.094  0.00  0.00     0.031 C 
ATOM     22  C   UNL d   1       5.880   0.969 -14.014  0.00  0.00    -0.000 A 
ATOM     23  C   UNL d   1       5.451   2.062 -13.240  0.00  0.00     0.000 A 
ATOM     24  C   UNL d   1       6.264   3.194 -13.090  0.00  0.00     0.004 A 
ENDBRANCH  16  18
ENDBRANCH  14  15
ENDBRANCH  13  14
ENDBRANCH   1  13
TORSDOF 7
