REMARK  5 active torsions:
REMARK  status: ('A' for Active; 'I' for Inactive)
REMARK    1  A    between atoms: O_2  and  C_3 
REMARK    2  A    between atoms: C_10  and  C_11 
REMARK       I    between atoms: C_11  and  N_13 
REMARK    3  A    between atoms: N_13  and  C_14 
REMARK    4  A    between atoms: N_22  and  C_23 
REMARK    5  A    between atoms: C_23  and  C_24 
ROOT
ATOM      1  C   UNL d   1       9.885   8.629  -9.601  0.00  0.00     0.111 C 
ATOM      2  C   UNL d   1      11.288   8.092  -9.326  0.00  0.00     0.058 C 
ATOM      3  C   UNL d   1      11.257   7.011  -8.216  0.00  0.00     0.222 C 
ATOM      4  C   UNL d   1      10.609   5.643  -8.595  0.00  0.00     0.033 C 
ATOM      5  C   UNL d   1       9.090   5.480  -8.501  0.00  0.00     0.004 C 
ATOM      6  C   UNL d   1       8.545   6.357  -7.345  0.00  0.00     0.033 C 
ATOM      7  C   UNL d   1       9.255   7.743  -7.163  0.00  0.00     0.222 C 
ATOM      8  C   UNL d   1       9.109   8.860  -8.252  0.00  0.00     0.058 C 
ATOM      9  N   UNL d   1      10.689   7.467  -6.971  0.00  0.00     0.138 N 
ENDROOT
BRANCH   1  10
ATOM     10  N   UNL d   1       9.265   7.672 -10.522  0.00  0.00    -0.236 NA
ATOM     11  C   UNL d   1       9.206   7.518 -11.810  0.00  0.00     0.278 C 
ATOM     12  O   UNL d   1       9.688   8.339 -12.616  0.00  0.00    -0.265 OA
BRANCH  11  13
ATOM     13  C   UNL d   1       8.576   6.283 -12.365  0.00  0.00     0.099 A 
ATOM     14  C   UNL d   1       9.239   5.418 -13.266  0.00  0.00     0.184 A 
ATOM     15  N   UNL d   1       8.697   4.316 -13.818  0.00  0.00    -0.207 NA
ATOM     16  C   UNL d   1       7.445   4.010 -13.452  0.00  0.00     0.163 A 
ATOM     17  N   UNL d   1       6.896   2.889 -14.068  0.00  0.00    -0.079 NA
ATOM     18  C   UNL d   1       6.700   4.742 -12.529  0.00  0.00     0.089 A 
ATOM     19 CL   UNL d   1       5.148   4.176 -12.114  0.00  0.00    -0.080 Cl
ATOM     20  C   UNL d   1       7.245   5.931 -11.972  0.00  0.00     0.022 A 
BRANCH  14  21
ATOM     21  O   UNL d   1      10.527   5.679 -13.638  0.00  0.00    -0.312 OA
ATOM     22  C   UNL d   1      11.184   4.876 -14.598  0.00  0.00     0.183 C 
ENDBRANCH  14  21
ENDBRANCH  11  13
ENDBRANCH   1  10
BRANCH   9  23
ATOM     23  C   UNL d   1      11.470   8.501  -6.302  0.00  0.00     0.277 C 
BRANCH  23  24
ATOM     24  C   UNL d   1      11.758   8.156  -4.848  0.00  0.00     0.011 A 
ATOM     25  C   UNL d   1      11.446   6.894  -4.285  0.00  0.00    -0.002 A 
ATOM     26  C   UNL d   1      11.749   6.634  -2.931  0.00  0.00    -0.000 A 
ATOM     27  C   UNL d   1      12.363   7.613  -2.141  0.00  0.00    -0.000 A 
ATOM     28  C   UNL d   1      12.668   8.853  -2.709  0.00  0.00    -0.000 A 
ATOM     29  C   UNL d   1      12.405   9.111  -4.059  0.00  0.00    -0.002 A 
ENDBRANCH  23  24
ENDBRANCH   9  23
TORSDOF 5
