REMARK  2 active torsions:
REMARK  status: ('A' for Active; 'I' for Inactive)
REMARK    1  A    between atoms: N_6  and  C_7 
REMARK    2  A    between atoms: C_7  and  C_8 
ROOT
ATOM      1  C   UNL d   1      10.633   3.612 -15.891  0.00  0.00     0.085 C 
ATOM      2  C   UNL d   1       9.927   4.875 -15.343  0.00  0.00     0.016 C 
ATOM      3  C   UNL d   1       8.997   4.646 -14.207  0.00  0.00     0.044 C 
ATOM      4  C   UNL d   1       8.209   3.397 -14.355  0.00  0.00     0.040 A 
ATOM      5  C   UNL d   1       8.490   2.368 -15.187  0.00  0.00     0.048 A 
ATOM      6  C   UNL d   1       7.397   1.405 -14.989  0.00  0.00     0.020 A 
ATOM      7  C   UNL d   1       6.982   0.128 -15.482  0.00  0.00     0.002 A 
ATOM      8  C   UNL d   1       5.806  -0.508 -14.952  0.00  0.00     0.000 A 
ATOM      9  C   UNL d   1       5.050   0.108 -13.949  0.00  0.00     0.002 A 
ATOM     10  C   UNL d   1       5.417   1.334 -13.444  0.00  0.00     0.017 A 
ATOM     11  C   UNL d   1       6.548   1.969 -13.987  0.00  0.00     0.060 A 
ATOM     12  N   UNL d   1       7.045   3.186 -13.640  0.00  0.00    -0.329 N 
ATOM     13  C   UNL d   1       6.514   4.080 -12.604  0.00  0.00     0.130 C 
ATOM     14  C   UNL d   1       9.664   2.373 -16.088  0.00  0.00     0.176 C 
ATOM     15  O   UNL d   1       9.911   1.513 -16.967  0.00  0.00    -0.291 OA
ENDROOT
BRANCH   1  16
ATOM     16  C   UNL d   1      11.478   3.957 -17.155  0.00  0.00     0.115 C 
BRANCH  16  17
ATOM     17  N   UNL d   1      12.548   4.970 -17.011  0.00  0.00    -0.314 N 
ATOM     18  C   UNL d   1      13.845   4.862 -17.429  0.00  0.00     0.121 C 
ATOM     19  C   UNL d   1      14.363   3.695 -18.218  0.00  0.00     0.072 C 
ATOM     20  N   UNL d   1      14.613   5.906 -17.105  0.00  0.00    -0.230 NA
ATOM     21  C   UNL d   1      13.733   6.788 -16.497  0.00  0.00     0.119 C 
ATOM     22  C   UNL d   1      12.466   6.278 -16.508  0.00  0.00     0.098 C 
ENDBRANCH  16  17
ENDBRANCH   1  16
TORSDOF 2
