REMARK  7 active torsions:
REMARK  status: ('A' for Active; 'I' for Inactive)
REMARK    1  A    between atoms: C_2  and  C_3 
REMARK       I    between atoms: C_2  and  N_10 
REMARK    2  A    between atoms: C_3  and  C_4 
REMARK    3  A    between atoms: N_10  and  C_11 
REMARK    4  A    between atoms: C_14  and  C_15 
REMARK    5  A    between atoms: C_15  and  C_16 
REMARK    6  A    between atoms: C_16  and  N_17 
REMARK    7  A    between atoms: N_20  and  C_21 
ROOT
ATOM      1  C   UNL d   1       8.947   4.791 -11.008  0.00  0.00     0.035 C 
ENDROOT
BRANCH   1   2
ATOM      2  C   UNL d   1       9.138   6.123 -10.273  0.00  0.00     0.002 C 
ATOM      3  C   UNL d   1       9.334   5.870  -8.780  0.00  0.00     0.002 C 
ATOM      4  C   UNL d   1       9.440   7.183  -8.030  0.00  0.00     0.024 C 
ATOM      5  C   UNL d   1      10.646   7.993  -8.567  0.00  0.00     0.106 C 
ATOM      6  C   UNL d   1      10.482   8.284 -10.063  0.00  0.00     0.024 C 
ATOM      7  C   UNL d   1      10.272   6.977 -10.836  0.00  0.00     0.002 C 
BRANCH   5   8
ATOM      8  N   UNL d   1      10.800   9.253  -7.865  0.00  0.00    -0.240 NA
ATOM      9  C   UNL d   1      11.114   9.460  -6.585  0.00  0.00     0.251 C 
ATOM     10  O   UNL d   1      11.446  10.573  -6.184  0.00  0.00    -0.271 OA
BRANCH   9  11
ATOM     11  C   UNL d   1      10.993   8.254  -5.646  0.00  0.00     0.092 C 
BRANCH  11  12
ATOM     12  C   UNL d   1      11.880   8.227  -4.419  0.00  0.00     0.039 C 
ATOM     13  C   UNL d   1      11.803   6.822  -3.737  0.00  0.00     0.143 C 
ATOM     14  O   UNL d   1      12.672   6.785  -2.619  0.00  0.00    -0.354 OA
ATOM     15  C   UNL d   1      12.336   7.767  -1.646  0.00  0.00     0.142 C 
ATOM     16  C   UNL d   1      12.429   9.184  -2.213  0.00  0.00     0.032 C 
ATOM     17  C   UNL d   1      11.527   9.331  -3.421  0.00  0.00     0.006 C 
ENDBRANCH  11  12
ENDBRANCH   9  11
ENDBRANCH   5   8
ENDBRANCH   1   2
BRANCH   1  18
ATOM     18  C   UNL d   1       8.600   4.942 -12.505  0.00  0.00     0.250 C 
BRANCH  18  19
ATOM     19  N   UNL d   1       8.431   3.640 -13.141  0.00  0.00     0.141 N 
ATOM     20  C   UNL d   1       7.753   3.816 -14.419  0.00  0.00     0.274 C 
ATOM     21  C   UNL d   1       7.522   2.454 -15.102  0.00  0.00     0.137 C 
ATOM     22  N   UNL d   1       8.798   1.777 -15.278  0.00  0.00    -0.343 N 
ATOM     23  C   UNL d   1       9.576   1.645 -14.066  0.00  0.00     0.137 C 
ATOM     24  C   UNL d   1       9.737   3.017 -13.394  0.00  0.00     0.274 C 
BRANCH  22  25
ATOM     25  C   UNL d   1       9.242   1.250 -16.502  0.00  0.00     0.081 A 
ATOM     26  C   UNL d   1       8.334   0.785 -17.467  0.00  0.00     0.135 A 
ATOM     27  C   UNL d   1       8.768   0.286 -18.689  0.00  0.00     0.121 A 
ATOM     28  O   UNL d   1       6.981   0.723 -17.413  0.00  0.00    -0.298 OA
ATOM     29  C   UNL d   1      10.128   0.212 -19.006  0.00  0.00     0.026 A 
ATOM     30  O   UNL d   1       7.694  -0.083 -19.424  0.00  0.00    -0.299 OA
ATOM     31  C   UNL d   1      11.062   0.657 -18.054  0.00  0.00     0.004 A 
ATOM     32  C   UNL d   1      10.629   1.172 -16.808  0.00  0.00     0.019 A 
ATOM     33  C   UNL d   1       6.562   0.185 -18.634  0.00  0.00     0.304 A 
ENDBRANCH  22  25
ENDBRANCH  18  19
ENDBRANCH   1  18
TORSDOF 7
