REMARK  7 active torsions:
REMARK  status: ('A' for Active; 'I' for Inactive)
REMARK    1  A    between atoms: C_2  and  C_3 
REMARK    2  A    between atoms: C_3  and  C_4 
REMARK    3  A    between atoms: C_10  and  O_11 
REMARK    4  A    between atoms: C_13  and  C_14 
REMARK       I    between atoms: C_14  and  N_16 
REMARK    5  A    between atoms: N_16  and  C_17 
REMARK    6  A    between atoms: C_17  and  C_18 
REMARK    7  A    between atoms: N_22  and  C_23 
ROOT
ATOM      1  C   UNL d   1       7.652   4.173 -12.849  0.00  0.00    -0.005 A 
ATOM      2  C   UNL d   1       7.404   3.042 -13.673  0.00  0.00     0.056 A 
ATOM      3 CL   UNL d   1       5.885   2.200 -13.637  0.00  0.00    -0.083 Cl
ATOM      4  C   UNL d   1       8.392   2.516 -14.504  0.00  0.00     0.041 A 
ATOM      5  C   UNL d   1       9.672   3.079 -14.566  0.00  0.00     0.154 A 
ATOM      6  O   UNL d   1      10.609   2.459 -15.352  0.00  0.00    -0.188 OA
ATOM      7  C   UNL d   1       9.962   4.224 -13.783  0.00  0.00     0.124 A 
ATOM      8  C   UNL d   1       8.970   4.725 -12.881  0.00  0.00     0.079 A 
ENDROOT
BRANCH   8   9
ATOM      9  C   UNL d   1       9.339   5.903 -12.024  0.00  0.00     0.277 C 
ATOM     10  O   UNL d   1       9.574   6.972 -12.564  0.00  0.00    -0.266 OA
ATOM     11  N   UNL d   1       9.215   5.750 -10.704  0.00  0.00    -0.232 NA
BRANCH  11  12
ATOM     12  C   UNL d   1       9.193   6.875  -9.788  0.00  0.00     0.162 C 
BRANCH  12  13
ATOM     13  C   UNL d   1      10.464   6.912  -8.938  0.00  0.00     0.243 C 
ATOM     14  N   UNL d   1      10.950   8.246  -8.636  0.00  0.00     0.137 N 
ATOM     15  C   UNL d   1      11.878   8.046  -7.532  0.00  0.00     0.250 C 
ATOM     16  C   UNL d   1      11.191   7.021  -6.631  0.00  0.00     0.037 C 
ATOM     17  C   UNL d   1      10.260   6.259  -7.567  0.00  0.00     0.037 C 
BRANCH  14  18
ATOM     18  C   UNL d   1      11.552   8.909  -9.811  0.00  0.00     0.250 C 
ATOM     19  C   UNL d   1      12.918   8.336 -10.229  0.00  0.00     0.037 C 
ENDBRANCH  14  18
ENDBRANCH  12  13
ENDBRANCH  11  12
ENDBRANCH   8   9
BRANCH   1  20
ATOM     20  C   UNL d   1       6.549   4.734 -11.926  0.00  0.00     0.027 C 
BRANCH  20  21
ATOM     21  C   UNL d   1       5.818   6.019 -12.413  0.00  0.00     0.005 C 
ATOM     22  C   UNL d   1       6.743   7.198 -12.768  0.00  0.00     0.000 C 
ENDBRANCH  20  21
ENDBRANCH   1  20
BRANCH   7  23
ATOM     23  O   UNL d   1      11.185   4.853 -13.832  0.00  0.00    -0.326 OA
ATOM     24  C   UNL d   1      11.787   5.015 -15.119  0.00  0.00     0.181 C 
ENDBRANCH   7  23
TORSDOF 7
