REMARK  2 active torsions:
REMARK  status: ('A' for Active; 'I' for Inactive)
REMARK    1  A    between atoms: N_13  and  C_14 
REMARK    2  A    between atoms: C_14  and  C_15 
ROOT
ATOM      1  N   UNL d   1      12.809   8.550  -2.324  0.00  0.00    -0.120 N 
ATOM      2  C   UNL d   1      12.289   8.388  -3.584  0.00  0.00     0.215 A 
ATOM      3  N   UNL d   1      11.515   7.362  -3.939  0.00  0.00    -0.219 NA
ATOM      4  C   UNL d   1      11.074   7.580  -5.240  0.00  0.00     0.089 A 
ATOM      5  C   UNL d   1      10.136   6.808  -5.950  0.00  0.00     0.015 A 
ATOM      6  C   UNL d   1       9.782   7.097  -7.281  0.00  0.00    -0.022 A 
ATOM      7  C   UNL d   1      10.373   8.208  -7.929  0.00  0.00    -0.024 A 
ATOM      8  C   UNL d   1      11.264   9.037  -7.223  0.00  0.00     0.004 A 
ATOM      9  C   UNL d   1      11.577   8.741  -5.897  0.00  0.00     0.050 A 
ATOM     10  S   UNL d   1      12.645   9.587  -4.822  0.00  0.00    -0.045 SA
ATOM     11  C   UNL d   1      10.052   8.547  -9.358  0.00  0.00     0.061 C 
ATOM     12  C   UNL d   1      10.343   7.394 -10.324  0.00  0.00     0.255 C 
ATOM     13  N   UNL d   1       9.345   6.322 -10.392  0.00  0.00     0.144 N 
ATOM     14  C   UNL d   1       9.300   5.472  -9.198  0.00  0.00     0.255 C 
ATOM     15  C   UNL d   1       8.765   6.215  -7.981  0.00  0.00     0.061 C 
ENDROOT
BRANCH  13  16
ATOM     16  C   UNL d   1       9.516   5.494 -11.589  0.00  0.00     0.296 C 
BRANCH  16  17
ATOM     17  C   UNL d   1       8.360   4.849 -12.260  0.00  0.00     0.100 A 
ATOM     18  N   UNL d   1       8.621   3.984 -13.329  0.00  0.00    -0.239 NA
ATOM     19  C   UNL d   1       7.498   3.515 -13.867  0.00  0.00     0.134 A 
ATOM     20  S   UNL d   1       6.024   4.088 -13.077  0.00  0.00    -0.064 SA
ATOM     21  C   UNL d   1       7.029   5.034 -12.017  0.00  0.00     0.054 A 
ENDBRANCH  16  17
ENDBRANCH  13  16
TORSDOF 2
