REMARK  4 active torsions:
REMARK  status: ('A' for Active; 'I' for Inactive)
REMARK    1  A    between atoms: C_4  and  C_5 
REMARK    2  A    between atoms: C_5  and  C_8 
REMARK    3  A    between atoms: C_18  and  N_19 
REMARK       I    between atoms: N_19  and  C_20 
REMARK    4  A    between atoms: C_20  and  C_22 
ROOT
ATOM      1  C   UNL d   1      11.149   8.645  -9.933  0.00  0.00     0.136 C 
ATOM      2  C   UNL d   1      12.537   8.474 -10.397  0.00  0.00     0.082 C 
ATOM      3  N   UNL d   1      13.652   8.358 -10.744  0.00  0.00    -0.196 NA
ENDROOT
BRANCH   1   4
ATOM      4  C   UNL d   1      10.211   7.534 -10.381  0.00  0.00     0.006 A 
ATOM      5  C   UNL d   1      10.265   6.341  -9.643  0.00  0.00    -0.005 A 
ATOM      6  C   UNL d   1       9.444   5.256 -10.010  0.00  0.00    -0.004 A 
ATOM      7  C   UNL d   1       9.789   3.969  -9.317  0.00  0.00     0.033 C 
ATOM      8  C   UNL d   1       8.497   5.376 -11.057  0.00  0.00     0.082 A 
ATOM      9  C   UNL d   1       8.445   6.570 -11.782  0.00  0.00     0.030 A 
ATOM     10  C   UNL d   1       9.255   7.662 -11.420  0.00  0.00     0.057 A 
ATOM     11 CL   UNL d   1       8.767   9.123 -12.152  0.00  0.00    -0.083 Cl
BRANCH   8  12
ATOM     12  N   UNL d   1       7.698   4.299 -11.495  0.00  0.00    -0.208 NA
ATOM     13  C   UNL d   1       6.752   4.237 -12.441  0.00  0.00     0.281 C 
ATOM     14  O   UNL d   1       5.714   4.898 -12.435  0.00  0.00    -0.265 OA
BRANCH  13  15
ATOM     15  C   UNL d   1       7.008   3.196 -13.485  0.00  0.00     0.084 A 
ATOM     16  C   UNL d   1       6.155   2.080 -13.667  0.00  0.00     0.141 A 
ATOM     17  C   UNL d   1       6.414   1.157 -14.696  0.00  0.00     0.056 A 
ATOM     18  O   UNL d   1       5.103   1.880 -12.823  0.00  0.00    -0.190 OA
ATOM     19  C   UNL d   1       7.537   1.310 -15.531  0.00  0.00     0.014 A 
ATOM     20  I   UNL d   1       5.150  -0.485 -14.996  0.00  0.00    -0.041 I 
ATOM     21  C   UNL d   1       8.417   2.391 -15.325  0.00  0.00     0.031 A 
ATOM     22  C   UNL d   1       8.162   3.325 -14.303  0.00  0.00     0.013 A 
ATOM     23  I   UNL d   1      10.084   2.642 -16.573  0.00  0.00    -0.043 I 
ENDBRANCH  13  15
ENDBRANCH   8  12
ENDBRANCH   1   4
BRANCH   1  24
ATOM     24  C   UNL d   1      11.106   8.843  -8.411  0.00  0.00    -0.004 A 
ATOM     25  C   UNL d   1      12.291   9.062  -7.676  0.00  0.00    -0.002 A 
ATOM     26  C   UNL d   1      12.250   9.352  -6.319  0.00  0.00     0.011 A 
ATOM     27  C   UNL d   1      11.063   9.316  -5.625  0.00  0.00     0.058 A 
ATOM     28  C   UNL d   1       9.871   9.054  -6.324  0.00  0.00     0.011 A 
ATOM     29 CL   UNL d   1      11.178   9.623  -3.930  0.00  0.00    -0.082 Cl
ATOM     30  C   UNL d   1       9.886   8.843  -7.715  0.00  0.00    -0.002 A 
ENDBRANCH   1  24
TORSDOF 4
