REMARK  5 active torsions:
REMARK  status: ('A' for Active; 'I' for Inactive)
REMARK    1  A    between atoms: N_11  and  C_12 
REMARK    2  A    between atoms: C_12  and  C_13 
REMARK    3  A    between atoms: C_13  and  C_14 
REMARK    4  A    between atoms: C_14  and  N_15 
REMARK    5  A    between atoms: N_18  and  C_19 
ROOT
ATOM      1  C   UNL d   1      11.791   2.651 -18.286  0.00  0.00     0.060 C 
ENDROOT
BRANCH   1   2
ATOM      2  C   UNL d   1      13.233   2.876 -17.724  0.00  0.00     0.111 C 
BRANCH   2   3
ATOM      3  N   UNL d   1      13.852   4.081 -18.265  0.00  0.00    -0.299 N 
ATOM      4  C   UNL d   1      14.681   3.942 -19.330  0.00  0.00     0.238 C 
ATOM      5  O   UNL d   1      14.989   2.854 -19.838  0.00  0.00    -0.272 OA
ATOM      6  C   UNL d   1      15.270   5.209 -19.925  0.00  0.00     0.093 C 
ATOM      7  C   UNL d   1      15.566   6.298 -18.868  0.00  0.00     0.038 C 
ATOM      8  C   UNL d   1      14.416   6.474 -17.905  0.00  0.00    -0.006 A 
ATOM      9  C   UNL d   1      13.600   5.357 -17.624  0.00  0.00     0.058 A 
ATOM     10  C   UNL d   1      14.150   7.736 -17.282  0.00  0.00    -0.003 A 
ATOM     11  C   UNL d   1      12.548   5.520 -16.685  0.00  0.00     0.017 A 
ATOM     12  C   UNL d   1      12.307   6.749 -16.048  0.00  0.00     0.002 A 
ATOM     13  C   UNL d   1      13.091   7.868 -16.349  0.00  0.00    -0.000 A 
ENDBRANCH   2   3
ENDBRANCH   1   2
BRANCH   1  14
ATOM     14  C   UNL d   1      11.114   1.327 -17.796  0.00  0.00     0.252 C 
BRANCH  14  15
ATOM     15  N   UNL d   1      10.472   1.335 -16.468  0.00  0.00     0.141 N 
ATOM     16  C   UNL d   1      11.241   2.145 -15.533  0.00  0.00     0.275 C 
ATOM     17  C   UNL d   1      10.674   2.340 -14.143  0.00  0.00     0.155 C 
ATOM     18  N   UNL d   1       9.301   2.825 -14.267  0.00  0.00    -0.179 N 
ATOM     19  C   UNL d   1       8.492   1.997 -15.165  0.00  0.00     0.155 C 
ATOM     20  C   UNL d   1       9.128   1.919 -16.566  0.00  0.00     0.275 C 
BRANCH  18  21
ATOM     21  C   UNL d   1       8.788   3.914 -13.560  0.00  0.00     0.727 A 
ATOM     22  N   UNL d   1       9.660   4.800 -13.057  0.00  0.00    -0.060 NA
ATOM     23  C   UNL d   1       9.150   5.839 -12.365  0.00  0.00     0.120 A 
ATOM     24  C   UNL d   1       7.767   5.991 -12.180  0.00  0.00     0.043 A 
ATOM     25  C   UNL d   1       6.946   5.002 -12.738  0.00  0.00     0.120 A 
ATOM     26  N   UNL d   1       7.459   3.976 -13.436  0.00  0.00    -0.060 NA
ENDBRANCH  18  21
ENDBRANCH  14  15
ENDBRANCH   1  14
TORSDOF 5
