REMARK  7 active torsions:
REMARK  status: ('A' for Active; 'I' for Inactive)
REMARK    1  A    between atoms: C_2  and  C_5 
REMARK    2  A    between atoms: C_5  and  C_6 
REMARK       I    between atoms: C_6  and  N_8 
REMARK    3  A    between atoms: N_8  and  C_9 
REMARK    4  A    between atoms: C_12  and  C_13 
REMARK    5  A    between atoms: C_13  and  C_14 
REMARK    6  A    between atoms: C_14  and  N_15 
REMARK    7  A    between atoms: C_18  and  C_19 
ROOT
ATOM      1  C   UNL d   1       9.164   6.137 -11.181  0.00  0.00     0.250 C 
ENDROOT
BRANCH   1   2
ATOM      2  C   UNL d   1       7.750   5.540 -11.240  0.00  0.00     0.035 C 
BRANCH   2   3
ATOM      3  C   UNL d   1       7.436   4.801 -12.551  0.00  0.00     0.002 C 
ATOM      4  C   UNL d   1       8.584   3.864 -12.967  0.00  0.00     0.002 C 
ATOM      5  C   UNL d   1       8.258   3.020 -14.191  0.00  0.00     0.024 C 
ATOM      6  C   UNL d   1       6.947   2.261 -14.036  0.00  0.00     0.106 C 
ATOM      7  C   UNL d   1       5.787   3.193 -13.626  0.00  0.00     0.024 C 
ATOM      8  C   UNL d   1       6.126   4.015 -12.374  0.00  0.00     0.002 C 
BRANCH   6   9
ATOM      9  N   UNL d   1       6.658   1.534 -15.261  0.00  0.00    -0.240 NA
ATOM     10  C   UNL d   1       6.005   0.380 -15.295  0.00  0.00     0.254 C 
ATOM     11  O   UNL d   1       5.763  -0.278 -14.268  0.00  0.00    -0.271 OA
BRANCH  10  12
ATOM     12  C   UNL d   1       5.481  -0.070 -16.669  0.00  0.00     0.120 C 
BRANCH  12  13
ATOM     13  C   UNL d   1       4.596  -1.342 -16.731  0.00  0.00     0.136 C 
ATOM     14  C   UNL d   1       5.388  -2.612 -16.373  0.00  0.00     0.034 C 
ATOM     15  C   UNL d   1       3.974  -1.493 -18.127  0.00  0.00     0.034 C 
ATOM     16  O   UNL d   1       3.475  -1.233 -15.874  0.00  0.00    -0.226 OA
ENDBRANCH  12  13
ENDBRANCH  10  12
ENDBRANCH   6   9
ENDBRANCH   2   3
ENDBRANCH   1   2
BRANCH   1  17
ATOM     17  N   UNL d   1       9.472   6.808  -9.924  0.00  0.00     0.137 N 
ATOM     18  C   UNL d   1       9.268   5.946  -8.757  0.00  0.00     0.251 C 
ATOM     19  C   UNL d   1       9.511   6.750  -7.478  0.00  0.00     0.040 C 
ATOM     20  C   UNL d   1      10.922   7.329  -7.450  0.00  0.00     0.026 C 
ATOM     21  C   UNL d   1      11.201   8.086  -8.763  0.00  0.00     0.040 C 
ATOM     22  C   UNL d   1      10.866   7.245  -9.979  0.00  0.00     0.251 C 
BRANCH  20  23
ATOM     23  C   UNL d   1      11.096   8.219  -6.210  0.00  0.00    -0.024 A 
ATOM     24  C   UNL d   1      11.465   7.683  -4.965  0.00  0.00    -0.001 A 
ATOM     25  C   UNL d   1      11.666   8.478  -3.839  0.00  0.00     0.090 A 
ATOM     26  C   UNL d   1      11.763   6.279  -4.600  0.00  0.00     0.061 C 
ATOM     27  C   UNL d   1      11.450   9.854  -3.900  0.00  0.00     0.024 A 
ATOM     28  O   UNL d   1      12.055   7.783  -2.738  0.00  0.00    -0.331 OA
ATOM     29  C   UNL d   1      11.058  10.408  -5.124  0.00  0.00     0.002 A 
ATOM     30  C   UNL d   1      10.879   9.600  -6.277  0.00  0.00    -0.004 A 
ATOM     31  C   UNL d   1      12.017   6.392  -3.075  0.00  0.00     0.154 C 
ENDBRANCH  20  23
ENDBRANCH   1  17
TORSDOF 7
