REMARK  0 active torsions:
REMARK  status: ('A' for Active; 'I' for Inactive)
ROOT
ATOM      1  C   UNL d   1       6.356   2.257 -13.834  0.00  0.00    -0.000 A 
ATOM      2  C   UNL d   1       5.654   2.826 -12.749  0.00  0.00    -0.000 A 
ATOM      3  C   UNL d   1       6.135   3.983 -12.108  0.00  0.00    -0.002 A 
ATOM      4  C   UNL d   1       7.329   4.583 -12.546  0.00  0.00     0.009 A 
ATOM      5  C   UNL d   1       8.028   4.013 -13.644  0.00  0.00    -0.022 A 
ATOM      6  C   UNL d   1       7.550   2.853 -14.282  0.00  0.00    -0.004 A 
ATOM      7  C   UNL d   1       9.269   4.688 -14.176  0.00  0.00     0.061 C 
ATOM      8  C   UNL d   1       9.815   5.724 -13.204  0.00  0.00     0.256 C 
ATOM      9  N   UNL d   1       8.732   6.597 -12.726  0.00  0.00     0.148 N 
ATOM     10  C   UNL d   1       9.183   7.825 -12.039  0.00  0.00     0.278 C 
ATOM     11  C   UNL d   1       9.869   7.620 -10.679  0.00  0.00     0.012 A 
ATOM     12  C   UNL d   1      10.851   8.391 -10.023  0.00  0.00    -0.002 A 
ATOM     13  C   UNL d   1      11.306   7.987  -8.743  0.00  0.00     0.001 A 
ATOM     14  C   UNL d   1      10.757   6.832  -8.138  0.00  0.00     0.019 A 
ATOM     15  C   UNL d   1       9.812   6.080  -8.804  0.00  0.00     0.081 A 
ATOM     16  N   UNL d   1       9.152   4.937  -8.466  0.00  0.00    -0.244 NA
ATOM     17  C   UNL d   1       8.257   4.578  -9.461  0.00  0.00     0.097 A 
ATOM     18  C   UNL d   1       8.446   5.486 -10.466  0.00  0.00     0.033 A 
ATOM     19  C   UNL d   1       9.377   6.461 -10.065  0.00  0.00     0.015 A 
ATOM     20  C   UNL d   1       7.873   5.822 -11.827  0.00  0.00     0.266 C 
ENDROOT
TORSDOF 0
