REMARK  6 active torsions:
REMARK  status: ('A' for Active; 'I' for Inactive)
REMARK    1  A    between atoms: N_2  and  C_3 
REMARK    2  A    between atoms: N_2  and  C_12 
REMARK    3  A    between atoms: C_3  and  C_4 
REMARK    4  A    between atoms: C_5  and  C_6 
REMARK    5  A    between atoms: N_15  and  C_16 
REMARK    6  A    between atoms: C_16  and  C_17 
ROOT
ATOM      1  C   UNL d   1      10.215   2.770 -15.595  0.00  0.00     0.224 C 
ATOM      2  C   UNL d   1      11.170   3.994 -15.485  0.00  0.00     0.069 C 
ATOM      3  C   UNL d   1      10.472   5.201 -14.842  0.00  0.00     0.253 C 
ATOM      4  N   UNL d   1       9.997   4.867 -13.486  0.00  0.00     0.141 N 
ATOM      5  C   UNL d   1       9.001   3.814 -13.649  0.00  0.00     0.253 C 
ATOM      6  C   UNL d   1       9.636   2.556 -14.188  0.00  0.00     0.069 C 
ENDROOT
BRANCH   1   7
ATOM      7  N   UNL d   1      10.923   1.556 -16.066  0.00  0.00     0.142 N 
ATOM      8  C   UNL d   1      11.857   1.873 -17.156  0.00  0.00     0.286 C 
BRANCH   7   9
ATOM      9  C   UNL d   1      10.079   0.439 -16.527  0.00  0.00     0.277 C 
BRANCH   9  10
ATOM     10  C   UNL d   1       8.798   0.159 -15.737  0.00  0.00     0.009 C 
ATOM     11  C   UNL d   1       7.609  -0.065 -16.326  0.00  0.00    -0.003 C 
BRANCH  11  12
ATOM     12  C   UNL d   1       6.325  -0.180 -15.588  0.00  0.00    -0.000 A 
ATOM     13  C   UNL d   1       6.137   0.494 -14.338  0.00  0.00    -0.000 A 
ATOM     14  C   UNL d   1       4.915   0.375 -13.645  0.00  0.00    -0.000 A 
ATOM     15  C   UNL d   1       3.869  -0.403 -14.157  0.00  0.00    -0.000 A 
ATOM     16  C   UNL d   1       4.057  -1.090 -15.385  0.00  0.00    -0.000 A 
ATOM     17  C   UNL d   1       5.267  -0.947 -16.080  0.00  0.00    -0.000 A 
ENDBRANCH  11  12
ENDBRANCH   9  10
ENDBRANCH   7   9
ENDBRANCH   1   7
BRANCH   4  18
ATOM     18  C   UNL d   1       9.349   6.034 -12.853  0.00  0.00     0.277 C 
BRANCH  18  19
ATOM     19  C   UNL d   1       9.355   5.981 -11.330  0.00  0.00     0.011 A 
ATOM     20  C   UNL d   1       9.858   7.100 -10.620  0.00  0.00    -0.002 A 
ATOM     21  C   UNL d   1       9.877   7.091  -9.212  0.00  0.00    -0.000 A 
ATOM     22  C   UNL d   1       9.392   5.971  -8.500  0.00  0.00    -0.000 A 
ATOM     23  C   UNL d   1       8.890   4.865  -9.216  0.00  0.00    -0.000 A 
ATOM     24  C   UNL d   1       8.852   4.869 -10.605  0.00  0.00    -0.002 A 
ENDBRANCH  18  19
ENDBRANCH   4  18
TORSDOF 6
