REMARK  5 active torsions:
REMARK  status: ('A' for Active; 'I' for Inactive)
REMARK    1  A    between atoms: C_2  and  C_3 
REMARK       I    between atoms: C_2  and  N_12 
REMARK    2  A    between atoms: N_15  and  C_16 
REMARK    3  A    between atoms: C_16  and  C_17 
REMARK    4  A    between atoms: C_17  and  O_18 
REMARK    5  A    between atoms: O_18  and  C_19 
ROOT
ATOM      1  O   UNL d   1       8.669   6.419  -6.832  0.00  0.00    -0.266 OA
ATOM      2  C   UNL d   1       9.484   6.960  -7.559  0.00  0.00     0.277 C 
ATOM      3  N   UNL d   1       9.715   6.510  -8.812  0.00  0.00    -0.311 N 
ATOM      4  C   UNL d   1       9.214   5.191  -9.263  0.00  0.00     0.140 C 
ATOM      5  C   UNL d   1       8.385   5.326 -10.551  0.00  0.00     0.274 C 
ATOM      6  N   UNL d   1       9.147   5.981 -11.611  0.00  0.00     0.144 N 
ATOM      7  C   UNL d   1       9.566   7.297 -11.137  0.00  0.00     0.274 C 
ATOM      8  C   UNL d   1      10.457   7.189  -9.896  0.00  0.00     0.140 C 
ENDROOT
BRANCH   2   9
ATOM      9  C   UNL d   1      10.419   8.003  -6.977  0.00  0.00     0.160 A 
ATOM     10  C   UNL d   1      11.051   7.796  -5.686  0.00  0.00     0.043 A 
ATOM     11  C   UNL d   1      11.850   8.943  -5.460  0.00  0.00     0.105 A 
ATOM     12  C   UNL d   1      11.083   6.801  -4.677  0.00  0.00     0.003 A 
ATOM     13  N   UNL d   1      11.636   9.709  -6.591  0.00  0.00    -0.148 NA
ATOM     14  C   UNL d   1      12.633   9.122  -4.304  0.00  0.00     0.021 A 
ATOM     15  N   UNL d   1      10.742   9.184  -7.453  0.00  0.00    -0.143 NA
ATOM     16  C   UNL d   1      12.606   8.134  -3.299  0.00  0.00     0.002 A 
ATOM     17  C   UNL d   1      11.841   6.967  -3.493  0.00  0.00     0.000 A 
ENDBRANCH   2   9
BRANCH   6  18
ATOM     18  C   UNL d   1       8.315   6.127 -12.798  0.00  0.00     0.283 C 
BRANCH  18  19
ATOM     19  C   UNL d   1       8.878   5.202 -13.881  0.00  0.00     0.184 C 
BRANCH  19  20
ATOM     20  O   UNL d   1       8.450   3.836 -13.747  0.00  0.00    -0.327 OA
BRANCH  20  21
ATOM     21  C   UNL d   1       9.150   2.881 -14.471  0.00  0.00     0.113 A 
ATOM     22  C   UNL d   1      10.335   3.132 -15.226  0.00  0.00     0.123 A 
ATOM     23  N   UNL d   1      11.028   2.178 -15.875  0.00  0.00    -0.240 NA
ATOM     24  C   UNL d   1      10.570   0.916 -15.830  0.00  0.00     0.099 A 
ATOM     25  C   UNL d   1       9.394   0.550 -15.148  0.00  0.00     0.023 A 
ATOM     26  C   UNL d   1       8.676   1.548 -14.453  0.00  0.00     0.027 A 
ENDBRANCH  20  21
ENDBRANCH  19  20
ENDBRANCH  18  19
ENDBRANCH   6  18
TORSDOF 5
