REMARK  1 active torsions:
REMARK  status: ('A' for Active; 'I' for Inactive)
REMARK       I    between atoms: N_13  and  C_14 
REMARK       I    between atoms: C_14  and  N_16 
REMARK    1  A    between atoms: N_16  and  C_17 
ROOT
ATOM      1  C   UNL d   1      13.007   9.515  -4.579  0.00  0.00     0.131 C 
ATOM      2  N   UNL d   1      12.105   8.420  -4.789  0.00  0.00    -0.324 N 
ATOM      3  C   UNL d   1      11.834   7.391  -3.933  0.00  0.00     0.076 A 
ATOM      4  C   UNL d   1      11.029   6.510  -4.580  0.00  0.00     0.020 A 
ATOM      5  C   UNL d   1      10.730   6.994  -5.868  0.00  0.00     0.019 A 
ATOM      6  C   UNL d   1       9.993   6.587  -7.019  0.00  0.00     0.018 A 
ATOM      7  C   UNL d   1      10.087   7.317  -8.225  0.00  0.00     0.060 A 
ATOM      8  C   UNL d   1      10.850   8.472  -8.274  0.00  0.00    -0.003 A 
ATOM      9  C   UNL d   1      11.546   8.947  -7.174  0.00  0.00     0.014 A 
ATOM     10  C   UNL d   1      11.458   8.233  -5.997  0.00  0.00     0.060 A 
ATOM     11  C   UNL d   1      10.840   9.088  -9.633  0.00  0.00     0.052 A 
ATOM     12  C   UNL d   1       9.941   8.150 -10.431  0.00  0.00     0.115 A 
ATOM     13  N   UNL d   1       9.518   7.075  -9.502  0.00  0.00    -0.280 N 
ATOM     14  C   UNL d   1       9.158   5.869  -9.979  0.00  0.00     0.350 C 
ATOM     15  O   UNL d   1       9.729   4.815  -9.685  0.00  0.00    -0.244 OA
ATOM     16  N   UNL d   1       8.126   5.913 -10.838  0.00  0.00    -0.191 NA
ENDROOT
BRANCH  16  17
ATOM     17  C   UNL d   1       7.937   4.965 -11.883  0.00  0.00     0.105 A 
ATOM     18  C   UNL d   1       9.035   4.428 -12.605  0.00  0.00     0.118 A 
ATOM     19  N   UNL d   1       8.908   3.588 -13.648  0.00  0.00    -0.241 NA
ATOM     20  C   UNL d   1       7.667   3.197 -14.006  0.00  0.00     0.099 A 
ATOM     21  C   UNL d   1       6.505   3.658 -13.348  0.00  0.00     0.022 A 
ATOM     22  C   UNL d   1       6.648   4.568 -12.274  0.00  0.00     0.022 A 
ENDBRANCH  16  17
TORSDOF 1
