REMARK  3 active torsions:
REMARK  status: ('A' for Active; 'I' for Inactive)
REMARK    1  A    between atoms: C_5  and  C_6 
REMARK    2  A    between atoms: N_8  and  C_9 
REMARK    3  A    between atoms: C_18  and  C_19 
ROOT
ATOM      1  C   UNL d   1       7.718   1.056 -16.146  0.00  0.00    -0.003 A 
ATOM      2  C   UNL d   1       7.281   1.844 -15.112  0.00  0.00     0.076 A 
ATOM      3  N   UNL d   1       8.281   2.711 -14.691  0.00  0.00    -0.305 N 
ATOM      4  C   UNL d   1       9.410   2.508 -15.485  0.00  0.00     0.064 A 
ATOM      5  C   UNL d   1      10.678   3.125 -15.520  0.00  0.00     0.018 A 
ATOM      6  C   UNL d   1      11.646   2.680 -16.434  0.00  0.00     0.002 A 
ATOM      7  C   UNL d   1      11.355   1.642 -17.345  0.00  0.00     0.003 A 
ATOM      8  C   UNL d   1      10.075   1.044 -17.309  0.00  0.00     0.001 A 
ATOM      9  C   UNL d   1       9.078   1.455 -16.392  0.00  0.00     0.014 A 
ENDROOT
BRANCH   1  10
ATOM     10  C   UNL d   1       6.920  -0.000 -16.872  0.00  0.00     0.028 C 
ATOM     11  C   UNL d   1       6.343   0.537 -18.192  0.00  0.00     0.040 C 
ATOM     12  C   UNL d   1       5.452  -0.513 -18.880  0.00  0.00     0.251 C 
ATOM     13  N   UNL d   1       4.367  -0.919 -17.988  0.00  0.00     0.139 N 
ATOM     14  C   UNL d   1       3.495  -1.858 -18.682  0.00  0.00     0.285 C 
ATOM     15  C   UNL d   1       4.911  -1.563 -16.792  0.00  0.00     0.251 C 
ATOM     16  C   UNL d   1       5.771  -0.561 -16.010  0.00  0.00     0.040 C 
ENDBRANCH   1  10
BRANCH   3  17
ATOM     17  C   UNL d   1       8.137   3.644 -13.633  0.00  0.00     0.067 A 
ATOM     18  C   UNL d   1       6.882   4.236 -13.354  0.00  0.00     0.038 A 
ATOM     19  C   UNL d   1       6.791   5.162 -12.295  0.00  0.00     0.101 A 
ATOM     20  N   UNL d   1       7.847   5.519 -11.538  0.00  0.00    -0.242 NA
ATOM     21  C   UNL d   1       9.033   4.934 -11.788  0.00  0.00     0.101 A 
ATOM     22  C   UNL d   1       9.229   3.983 -12.805  0.00  0.00     0.038 A 
ENDBRANCH   3  17
BRANCH   7  23
ATOM     23  C   UNL d   1      12.372   1.206 -18.314  0.00  0.00     0.040 A 
ATOM     24  C   UNL d   1      12.499  -0.026 -18.885  0.00  0.00     0.097 A 
ATOM     25  N   UNL d   1      13.610   0.044 -19.701  0.00  0.00    -0.248 N 
ATOM     26  N   UNL d   1      14.196   1.265 -19.670  0.00  0.00    -0.168 NA
ATOM     27  C   UNL d   1      14.174  -0.990 -20.537  0.00  0.00     0.154 C 
ATOM     28  C   UNL d   1      13.448   1.976 -18.838  0.00  0.00     0.122 A 
ENDBRANCH   7  23
TORSDOF 3
