REMARK  4 active torsions:
REMARK  status: ('A' for Active; 'I' for Inactive)
REMARK       I    between atoms: C_2  and  N_3 
REMARK       I    between atoms: C_2  and  N_10 
REMARK    1  A    between atoms: N_3  and  C_4 
REMARK    2  A    between atoms: N_10  and  C_11 
REMARK    3  A    between atoms: N_14  and  C_15 
REMARK    4  A    between atoms: C_15  and  C_16 
ROOT
ATOM      1  C   UNL d   1       9.701   6.531  -9.858  0.00  0.00     0.112 C 
ATOM      2  C   UNL d   1       9.544   7.399 -11.111  0.00  0.00     0.060 C 
ATOM      3  C   UNL d   1       9.398   6.535 -12.375  0.00  0.00     0.253 C 
ATOM      4  N   UNL d   1       8.319   5.576 -12.253  0.00  0.00     0.141 N 
ATOM      5  C   UNL d   1       8.642   4.689 -11.133  0.00  0.00     0.253 C 
ATOM      6  C   UNL d   1       8.618   5.473  -9.832  0.00  0.00     0.060 C 
ENDROOT
BRANCH   1   7
ATOM      7  N   UNL d   1       9.616   7.363  -8.659  0.00  0.00    -0.219 NA
ATOM      8  C   UNL d   1      10.339   7.104  -7.550  0.00  0.00     0.364 C 
ATOM      9  O   UNL d   1      11.074   6.142  -7.429  0.00  0.00    -0.243 OA
ATOM     10  N   UNL d   1      10.179   8.059  -6.611  0.00  0.00    -0.191 NA
BRANCH  10  11
ATOM     11  C   UNL d   1      10.917   8.175  -5.399  0.00  0.00     0.086 A 
ATOM     12  C   UNL d   1      11.078   9.456  -4.810  0.00  0.00     0.019 A 
ATOM     13  C   UNL d   1      11.742   9.580  -3.569  0.00  0.00     0.002 A 
ATOM     14  C   UNL d   1      12.262   8.447  -2.914  0.00  0.00     0.000 A 
ATOM     15  C   UNL d   1      12.109   7.176  -3.498  0.00  0.00     0.002 A 
ATOM     16  C   UNL d   1      11.437   7.044  -4.726  0.00  0.00     0.019 A 
ENDBRANCH  10  11
ENDBRANCH   1   7
BRANCH   4  17
ATOM     17  C   UNL d   1       8.199   4.838 -13.525  0.00  0.00     0.277 C 
BRANCH  17  18
ATOM     18  C   UNL d   1       7.186   3.702 -13.532  0.00  0.00     0.011 C 
ATOM     19  C   UNL d   1       6.123   3.655 -12.599  0.00  0.00    -0.002 C 
ATOM     20  C   UNL d   1       5.348   2.501 -12.486  0.00  0.00    -0.000 C 
ATOM     21  C   UNL d   1       5.489   1.428 -13.405  0.00  0.00    -0.000 C 
ATOM     22  C   UNL d   1       6.473   1.510 -14.403  0.00  0.00    -0.000 C 
ATOM     23  C   UNL d   1       7.329   2.636 -14.455  0.00  0.00    -0.002 C 
ENDBRANCH  17  18
ENDBRANCH   4  17
TORSDOF 4
