REMARK  8 active torsions:
REMARK  status: ('A' for Active; 'I' for Inactive)
REMARK    1  A    between atoms: C_6  and  C_7 
REMARK    2  A    between atoms: C_10  and  S_11 
REMARK    3  A    between atoms: S_11  and  C_12 
REMARK    4  A    between atoms: C_12  and  C_13 
REMARK    5  A    between atoms: C_13  and  C_14 
REMARK    6  A    between atoms: C_14  and  N_15 
REMARK    7  A    between atoms: C_20  and  C_21 
REMARK    8  A    between atoms: C_24  and  C_25 
ROOT
ATOM      1  N   UNL d   1       9.102   5.373 -12.268  0.00  0.00     0.137 N 
ATOM      2  C   UNL d   1       8.004   6.168 -11.765  0.00  0.00     0.250 C 
ATOM      3  C   UNL d   1       8.303   6.267 -10.264  0.00  0.00     0.038 C 
ATOM      4  C   UNL d   1       9.062   5.035  -9.945  0.00  0.00     0.038 A 
ATOM      5  C   UNL d   1       8.799   4.306  -8.642  0.00  0.00     0.007 A 
ATOM      6  C   UNL d   1      10.089   5.058  -8.840  0.00  0.00     0.026 A 
ATOM      7  C   UNL d   1       9.225   4.330 -11.259  0.00  0.00     0.251 C 
ENDROOT
BRANCH   1   8
ATOM      8  C   UNL d   1       8.810   4.805 -13.571  0.00  0.00     0.251 C 
BRANCH   8   9
ATOM      9  C   UNL d   1       9.964   3.905 -14.080  0.00  0.00     0.047 C 
BRANCH   9  10
ATOM     10  C   UNL d   1       9.524   2.986 -15.231  0.00  0.00     0.067 C 
BRANCH  10  11
ATOM     11  S   UNL d   1       8.357   1.722 -14.649  0.00  0.00    -0.075 SA
BRANCH  11  12
ATOM     12  C   UNL d   1       7.570   1.276 -16.165  0.00  0.00     0.193 A 
ATOM     13  N   UNL d   1       7.866   1.817 -17.348  0.00  0.00    -0.122 NA
ATOM     14  N   UNL d   1       7.026   1.214 -18.249  0.00  0.00    -0.126 NA
ATOM     15  C   UNL d   1       6.285   0.350 -17.547  0.00  0.00     0.191 A 
ATOM     16  N   UNL d   1       6.585   0.353 -16.230  0.00  0.00    -0.287 N 
ATOM     17  C   UNL d   1       5.998  -0.439 -15.155  0.00  0.00     0.134 C 
BRANCH  15  18
ATOM     18  C   UNL d   1       5.275  -0.483 -18.206  0.00  0.00     0.151 A 
ATOM     19  C   UNL d   1       4.880  -0.591 -19.513  0.00  0.00     0.087 A 
ATOM     20  C   UNL d   1       5.359   0.139 -20.735  0.00  0.00     0.054 C 
ATOM     21  N   UNL d   1       3.888  -1.561 -19.594  0.00  0.00    -0.221 NA
ATOM     22  C   UNL d   1       3.731  -1.981 -18.344  0.00  0.00     0.225 A 
ATOM     23  O   UNL d   1       4.543  -1.359 -17.449  0.00  0.00    -0.282 OA
ENDBRANCH  15  18
ENDBRANCH  11  12
ENDBRANCH  10  11
ENDBRANCH   9  10
ENDBRANCH   8   9
ENDBRANCH   1   8
BRANCH   6  24
ATOM     24  C   UNL d   1      10.407   6.333  -8.116  0.00  0.00     0.005 A 
ATOM     25  C   UNL d   1      11.185   7.372  -8.680  0.00  0.00     0.136 A 
ATOM     26  C   UNL d   1      11.505   8.507  -7.916  0.00  0.00     0.033 A 
ATOM     27  F   UNL d   1      11.667   7.257  -9.935  0.00  0.00    -0.205 F 
ATOM     28  C   UNL d   1      11.020   8.619  -6.582  0.00  0.00     0.074 A 
ATOM     29  C   UNL d   1      10.244   7.599  -6.046  0.00  0.00     0.004 A 
ATOM     30  C   UNL d   1       9.925   6.476  -6.828  0.00  0.00    -0.002 A 
BRANCH  28  31
ATOM     31  C   UNL d   1      11.318   9.841  -5.742  0.00  0.00     0.419 C 
ATOM     32  F   UNL d   1      12.411   9.590  -5.026  0.00  0.00    -0.166 F 
ATOM     33  F   UNL d   1      11.516  10.899  -6.518  0.00  0.00    -0.166 F 
ATOM     34  F   UNL d   1      10.312  10.121  -4.907  0.00  0.00    -0.166 F 
ENDBRANCH  28  31
ENDBRANCH   6  24
TORSDOF 8
