REMARK  8 active torsions:
REMARK  status: ('A' for Active; 'I' for Inactive)
REMARK    1  A    between atoms: C_2  and  C_3 
REMARK    2  A    between atoms: C_7  and  N_8 
REMARK    3  A    between atoms: N_11  and  C_12 
REMARK    4  A    between atoms: C_12  and  C_13 
REMARK    5  A    between atoms: C_13  and  C_14 
REMARK    6  A    between atoms: C_14  and  C_15 
REMARK    7  A    between atoms: C_14  and  C_20 
REMARK    8  A    between atoms: C_14  and  C_26 
REMARK       I    between atoms: C_15  and  N_17 
ROOT
ATOM      1  C   UNL d   1       9.453   2.180 -17.133  0.00  0.00     0.111 C 
ENDROOT
BRANCH   1   2
ATOM      2  C   UNL d   1       9.055   2.577 -15.664  0.00  0.00     0.052 C 
BRANCH   2   3
ATOM      3  C   UNL d   1       9.982   3.556 -14.918  0.00  0.00     0.252 C 
BRANCH   3   4
ATOM      4  N   UNL d   1       9.270   4.104 -13.776  0.00  0.00     0.141 N 
ATOM      5  C   UNL d   1      10.028   3.785 -12.576  0.00  0.00     0.274 C 
ATOM      6  C   UNL d   1       9.332   4.344 -11.343  0.00  0.00     0.137 C 
ATOM      7  N   UNL d   1       9.164   5.775 -11.439  0.00  0.00    -0.344 N 
ATOM      8  C   UNL d   1       8.477   6.189 -12.646  0.00  0.00     0.137 C 
ATOM      9  C   UNL d   1       9.175   5.564 -13.870  0.00  0.00     0.274 C 
BRANCH   7  10
ATOM     10  C   UNL d   1       9.529   6.670 -10.414  0.00  0.00     0.067 A 
ATOM     11  C   UNL d   1      10.103   7.911 -10.784  0.00  0.00     0.018 A 
ATOM     12  C   UNL d   1      10.562   8.800  -9.840  0.00  0.00     0.001 A 
ATOM     13  C   UNL d   1      10.421   8.523  -8.460  0.00  0.00    -0.003 A 
ATOM     14  C   UNL d   1       9.827   7.296  -8.066  0.00  0.00    -0.010 A 
ATOM     15  C   UNL d   1       9.397   6.379  -9.017  0.00  0.00     0.069 A 
ATOM     16 CL   UNL d   1       8.661   4.880  -8.508  0.00  0.00    -0.081 Cl
BRANCH  14  17
ATOM     17  C   UNL d   1       9.680   7.053  -6.564  0.00  0.00     0.027 C 
ATOM     18  C   UNL d   1      11.033   6.820  -5.890  0.00  0.00     0.005 C 
ENDBRANCH  14  17
ENDBRANCH   7  10
ENDBRANCH   3   4
ENDBRANCH   2   3
ENDBRANCH   1   2
BRANCH   1  19
ATOM     19  C   UNL d   1      10.438   0.942 -17.134  0.00  0.00     0.240 C 
ATOM     20  O   UNL d   1      10.639   0.392 -16.052  0.00  0.00    -0.272 OA
ATOM     21  N   UNL d   1      11.036   0.438 -18.262  0.00  0.00    -0.316 N 
ATOM     22  C   UNL d   1      11.787  -0.817 -18.163  0.00  0.00     0.128 C 
ATOM     23  C   UNL d   1      11.059   0.977 -19.640  0.00  0.00     0.128 C 
ENDBRANCH   1  19
BRANCH   1  24
ATOM     24  C   UNL d   1       8.169   1.714 -17.892  0.00  0.00    -0.011 A 
ATOM     25  C   UNL d   1       8.077   1.795 -19.305  0.00  0.00    -0.004 A 
ATOM     26  C   UNL d   1       6.957   1.287 -19.995  0.00  0.00    -0.000 A 
ATOM     27  C   UNL d   1       5.851   0.781 -19.295  0.00  0.00    -0.000 A 
ATOM     28  C   UNL d   1       5.887   0.744 -17.885  0.00  0.00    -0.000 A 
ATOM     29  C   UNL d   1       7.040   1.177 -17.196  0.00  0.00    -0.004 A 
ENDBRANCH   1  24
BRANCH   1  30
ATOM     30  C   UNL d   1      10.136   3.424 -17.785  0.00  0.00    -0.011 A 
ATOM     31  C   UNL d   1      11.551   3.535 -17.938  0.00  0.00    -0.004 A 
ATOM     32  C   UNL d   1      12.131   4.636 -18.557  0.00  0.00    -0.000 A 
ATOM     33  C   UNL d   1      11.341   5.725 -18.959  0.00  0.00    -0.000 A 
ATOM     34  C   UNL d   1       9.952   5.688 -18.758  0.00  0.00    -0.000 A 
ATOM     35  C   UNL d   1       9.359   4.540 -18.173  0.00  0.00    -0.004 A 
ENDBRANCH   1  30
TORSDOF 8
