REMARK  8 active torsions:
REMARK  status: ('A' for Active; 'I' for Inactive)
REMARK    1  A    between atoms: C_2  and  N_4 
REMARK    2  A    between atoms: C_5  and  C_6 
REMARK    3  A    between atoms: C_7  and  C_8 
REMARK    4  A    between atoms: C_8  and  C_10 
REMARK    5  A    between atoms: C_10  and  C_11 
REMARK    6  A    between atoms: C_11  and  C_13 
REMARK    7  A    between atoms: C_13  and  C_14 
REMARK    8  A    between atoms: C_17  and  C_18 
ROOT
ATOM      1  N   UNL d   1       7.046   2.736 -13.665  0.00  0.00    -0.314 N 
ATOM      2  C   UNL d   1       8.360   3.235 -13.783  0.00  0.00     0.063 A 
ATOM      3  C   UNL d   1       8.908   2.740 -14.968  0.00  0.00     0.018 A 
ATOM      4  C   UNL d   1       7.911   1.915 -15.591  0.00  0.00     0.018 A 
ATOM      5  C   UNL d   1       7.794   1.182 -16.795  0.00  0.00     0.002 C 
ATOM      6  C   UNL d   1       6.641   0.454 -17.142  0.00  0.00     0.000 C 
ATOM      7  C   UNL d   1       5.585   0.348 -16.242  0.00  0.00     0.002 C 
ATOM      8  C   UNL d   1       5.693   0.995 -15.028  0.00  0.00     0.018 C 
ATOM      9  C   UNL d   1       6.780   1.868 -14.712  0.00  0.00     0.063 A 
ENDROOT
BRANCH   2  10
ATOM     10  C   UNL d   1       9.083   3.987 -12.768  0.00  0.00     0.015 C 
ATOM     11  C   UNL d   1       8.789   4.215 -11.464  0.00  0.00     0.008 C 
BRANCH  11  12
ATOM     12  C   UNL d   1       9.488   4.955 -10.398  0.00  0.00     0.177 C 
ATOM     13  O   UNL d   1       9.792   4.012  -9.361  0.00  0.00    -0.218 OA
BRANCH  12  14
ATOM     14  C   UNL d   1       8.652   6.130  -9.879  0.00  0.00     0.071 C 
BRANCH  14  15
ATOM     15  C   UNL d   1       9.196   6.771  -8.578  0.00  0.00     0.166 C 
ATOM     16  O   UNL d   1       8.680   8.034  -8.299  0.00  0.00    -0.223 OA
BRANCH  15  17
ATOM     17  C   UNL d   1      10.711   6.919  -8.495  0.00  0.00     0.131 C 
BRANCH  17  18
ATOM     18  C   UNL d   1      11.366   7.967  -9.405  0.00  0.00     0.188 C 
ATOM     19  O   UNL d   1      10.764   8.675 -10.210  0.00  0.00    -0.647 OA
ATOM     20  O   UNL d   1      12.707   8.016  -9.185  0.00  0.00    -0.647 OA
ENDBRANCH  17  18
ENDBRANCH  15  17
ENDBRANCH  14  15
ENDBRANCH  12  14
ENDBRANCH  11  12
ENDBRANCH   2  10
BRANCH   1  21
ATOM     21  C   UNL d   1       6.131   2.957 -12.504  0.00  0.00     0.020 C 
ATOM     22  C   UNL d   1       5.151   1.821 -12.184  0.00  0.00     0.046 C 
ATOM     23  C   UNL d   1       5.560   4.356 -12.451  0.00  0.00     0.046 C 
ENDBRANCH   1  21
BRANCH   3  24
ATOM     24  C   UNL d   1      10.221   2.943 -15.578  0.00  0.00     0.002 A 
ATOM     25  C   UNL d   1      10.826   4.213 -15.523  0.00  0.00     0.002 A 
ATOM     26  C   UNL d   1      12.067   4.443 -16.130  0.00  0.00     0.030 A 
ATOM     27  C   UNL d   1      12.696   3.410 -16.841  0.00  0.00     0.140 A 
ATOM     28  C   UNL d   1      12.100   2.139 -16.915  0.00  0.00     0.030 A 
ATOM     29  F   UNL d   1      13.885   3.637 -17.440  0.00  0.00    -0.204 F 
ATOM     30  C   UNL d   1      10.874   1.901 -16.273  0.00  0.00     0.002 A 
ENDBRANCH   3  24
TORSDOF 8
