REMARK  6 active torsions:
REMARK  status: ('A' for Active; 'I' for Inactive)
REMARK    1  A    between atoms: O_2  and  C_3 
REMARK    2  A    between atoms: C_3  and  C_5 
REMARK    3  A    between atoms: C_13  and  C_14 
REMARK    4  A    between atoms: C_14  and  N_15 
REMARK    5  A    between atoms: C_18  and  C_19 
REMARK    6  A    between atoms: C_19  and  C_21 
ROOT
ATOM      1  N   UNL d   1       9.339   5.755 -11.972  0.00  0.00     0.137 N 
ATOM      2  C   UNL d   1       9.614   5.217 -10.648  0.00  0.00     0.251 C 
ATOM      3  C   UNL d   1      10.482   6.204  -9.857  0.00  0.00     0.043 C 
ATOM      4  C   UNL d   1       9.753   7.557  -9.641  0.00  0.00     0.066 C 
ATOM      5  C   UNL d   1       9.321   8.046 -11.050  0.00  0.00     0.043 C 
ATOM      6  C   UNL d   1       8.534   6.961 -11.814  0.00  0.00     0.251 C 
ENDROOT
BRANCH   1   7
ATOM      7  C   UNL d   1       8.635   4.745 -12.745  0.00  0.00     0.251 C 
BRANCH   7   8
ATOM      8  C   UNL d   1       9.659   3.986 -13.618  0.00  0.00     0.048 C 
ATOM      9  C   UNL d   1      10.104   4.874 -14.807  0.00  0.00     0.072 C 
ATOM     10  C   UNL d   1      11.073   4.212 -15.787  0.00  0.00     0.175 C 
ATOM     11  C   UNL d   1      10.834   2.761 -16.027  0.00  0.00     0.060 A 
ATOM     12  O   UNL d   1      11.937   4.888 -16.328  0.00  0.00    -0.291 OA
ATOM     13  C   UNL d   1      11.335   1.772 -16.925  0.00  0.00     0.092 A 
ATOM     14  C   UNL d   1       9.938   2.122 -15.220  0.00  0.00     0.081 A 
ATOM     15  C   UNL d   1      10.663   0.622 -16.600  0.00  0.00     0.128 A 
ATOM     16  O   UNL d   1       9.811   0.815 -15.554  0.00  0.00    -0.309 OA
ATOM     17  C   UNL d   1       9.110   2.630 -14.096  0.00  0.00     0.054 C 
BRANCH  13  18
ATOM     18  C   UNL d   1      12.338   1.813 -18.015  0.00  0.00     0.298 C 
ATOM     19  O   UNL d   1      12.560   0.861 -18.772  0.00  0.00    -0.259 OA
BRANCH  18  20
ATOM     20  O   UNL d   1      12.970   2.986 -18.053  0.00  0.00    -0.296 OA
ATOM     21  C   UNL d   1      13.971   3.267 -19.007  0.00  0.00     0.185 C 
ENDBRANCH  18  20
ENDBRANCH  13  18
ENDBRANCH   7   8
ENDBRANCH   1   7
BRANCH   4  22
ATOM     22  C   UNL d   1      10.619   8.601  -8.903  0.00  0.00     0.173 C 
ATOM     23  O   UNL d   1      11.054   9.567  -9.528  0.00  0.00    -0.291 OA
BRANCH  22  24
ATOM     24  C   UNL d   1      10.867   8.455  -7.433  0.00  0.00     0.035 A 
ATOM     25  C   UNL d   1      10.670   7.240  -6.712  0.00  0.00     0.005 A 
ATOM     26  C   UNL d   1      11.041   7.147  -5.362  0.00  0.00     0.030 A 
ATOM     27  C   UNL d   1      11.502   8.279  -4.665  0.00  0.00     0.140 A 
ATOM     28  C   UNL d   1      11.631   9.504  -5.347  0.00  0.00     0.030 A 
ATOM     29  F   UNL d   1      11.785   8.189  -3.347  0.00  0.00    -0.204 F 
ATOM     30  C   UNL d   1      11.352   9.584  -6.724  0.00  0.00     0.005 A 
ENDBRANCH  22  24
ENDBRANCH   4  22
TORSDOF 6
