REMARK  2 active torsions:
REMARK  status: ('A' for Active; 'I' for Inactive)
REMARK    1  A    between atoms: C_2  and  C_3 
REMARK    2  A    between atoms: C_3  and  N_4 
ROOT
ATOM      1  N   UNL d   1      10.337   7.415  -8.916  0.00  0.00     0.140 N 
ATOM      2  C   UNL d   1       9.714   8.724  -8.877  0.00  0.00     0.251 C 
ATOM      3  C   UNL d   1       9.775   9.024  -7.399  0.00  0.00     0.042 C 
ATOM      4  C   UNL d   1      11.168   8.610  -7.013  0.00  0.00     0.057 C 
ATOM      5  C   UNL d   1      11.411   8.535  -5.511  0.00  0.00     0.001 A 
ATOM      6  C   UNL d   1      11.329   9.672  -4.688  0.00  0.00     0.127 A 
ATOM      7  O   UNL d   1      11.016  10.865  -5.235  0.00  0.00    -0.191 OA
ATOM      8  C   UNL d   1      11.574   9.591  -3.309  0.00  0.00     0.027 A 
ATOM      9  C   UNL d   1      11.870   8.366  -2.694  0.00  0.00     0.002 A 
ATOM     10  C   UNL d   1      11.954   7.220  -3.503  0.00  0.00    -0.004 A 
ATOM     11  C   UNL d   1      11.739   7.319  -4.891  0.00  0.00    -0.024 A 
ATOM     12  C   UNL d   1      11.806   6.081  -5.734  0.00  0.00     0.028 C 
ATOM     13  C   UNL d   1      10.968   6.125  -7.012  0.00  0.00     0.038 C 
ATOM     14  C   UNL d   1      11.331   7.351  -7.836  0.00  0.00     0.224 C 
ENDROOT
BRANCH   1  15
ATOM     15  C   UNL d   1      10.896   7.142 -10.221  0.00  0.00     0.276 C 
BRANCH  15  16
ATOM     16  C   UNL d   1       9.846   6.568 -11.148  0.00  0.00     0.009 C 
ATOM     17  C   UNL d   1       9.265   7.229 -12.151  0.00  0.00    -0.003 C 
ENDBRANCH  15  16
ENDBRANCH   1  15
TORSDOF 2
