REMARK  7 active torsions:
REMARK  status: ('A' for Active; 'I' for Inactive)
REMARK    1  A    between atoms: C_2  and  C_5 
REMARK    2  A    between atoms: C_5  and  C_6 
REMARK       I    between atoms: C_6  and  N_8 
REMARK    3  A    between atoms: N_8  and  C_9 
REMARK    4  A    between atoms: C_12  and  C_13 
REMARK    5  A    between atoms: C_13  and  C_14 
REMARK    6  A    between atoms: C_14  and  N_15 
REMARK    7  A    between atoms: C_18  and  C_19 
ROOT
ATOM      1  C   UNL d   1       8.712   6.654 -10.970  0.00  0.00     0.250 C 
ENDROOT
BRANCH   1   2
ATOM      2  C   UNL d   1      10.134   7.001 -10.489  0.00  0.00     0.035 C 
BRANCH   2   3
ATOM      3  C   UNL d   1      10.206   7.908  -9.269  0.00  0.00     0.002 C 
ATOM      4  C   UNL d   1       9.592   7.229  -8.027  0.00  0.00     0.002 C 
ATOM      5  C   UNL d   1       9.700   8.143  -6.814  0.00  0.00     0.024 C 
ATOM      6  C   UNL d   1      11.174   8.521  -6.570  0.00  0.00     0.106 C 
ATOM      7  C   UNL d   1      11.806   9.190  -7.788  0.00  0.00     0.024 C 
ATOM      8  C   UNL d   1      11.685   8.298  -9.009  0.00  0.00     0.002 C 
BRANCH   6   9
ATOM      9  N   UNL d   1      11.240   9.442  -5.438  0.00  0.00    -0.240 NA
ATOM     10  C   UNL d   1      11.607   9.151  -4.203  0.00  0.00     0.251 C 
ATOM     11  O   UNL d   1      11.440   9.996  -3.304  0.00  0.00    -0.271 OA
BRANCH  10  12
ATOM     12  C   UNL d   1      12.303   7.800  -3.917  0.00  0.00     0.090 C 
BRANCH  12  13
ATOM     13  C   UNL d   1      12.324   7.228  -2.482  0.00  0.00     0.009 C 
ATOM     14  C   UNL d   1      12.908   8.247  -1.456  0.00  0.00     0.001 C 
ATOM     15  C   UNL d   1      13.145   5.930  -2.457  0.00  0.00     0.001 C 
ATOM     16  C   UNL d   1      10.913   6.730  -2.156  0.00  0.00     0.001 C 
ENDBRANCH  12  13
ENDBRANCH  10  12
ENDBRANCH   6   9
ENDBRANCH   2   3
ENDBRANCH   1   2
BRANCH   1  17
ATOM     17  N   UNL d   1       8.693   5.736 -12.101  0.00  0.00     0.137 N 
ATOM     18  C   UNL d   1       9.110   4.399 -11.692  0.00  0.00     0.251 C 
ATOM     19  C   UNL d   1       9.129   3.472 -12.905  0.00  0.00     0.040 C 
ATOM     20  C   UNL d   1       7.743   3.337 -13.524  0.00  0.00     0.028 C 
ATOM     21  C   UNL d   1       7.226   4.730 -13.792  0.00  0.00     0.040 C 
ATOM     22  C   UNL d   1       7.305   5.646 -12.558  0.00  0.00     0.251 C 
BRANCH  20  23
ATOM     23  C   UNL d   1       7.796   2.498 -14.776  0.00  0.00     0.004 A 
ATOM     24  C   UNL d   1       6.958   1.403 -15.149  0.00  0.00     0.021 A 
ATOM     25  C   UNL d   1       7.392   0.972 -16.424  0.00  0.00     0.100 A 
ATOM     26  C   UNL d   1       5.859   0.717 -14.568  0.00  0.00     0.002 A 
ATOM     27  O   UNL d   1       8.458   1.743 -16.831  0.00  0.00    -0.305 OA
ATOM     28  C   UNL d   1       6.787  -0.082 -17.129  0.00  0.00     0.025 A 
ATOM     29  C   UNL d   1       8.694   2.639 -15.829  0.00  0.00     0.118 A 
ATOM     30  C   UNL d   1       5.695  -0.742 -16.531  0.00  0.00     0.002 A 
ATOM     31  C   UNL d   1       5.232  -0.345 -15.263  0.00  0.00     0.000 A 
ENDBRANCH  20  23
ENDBRANCH   1  17
TORSDOF 7
