REMARK  2 active torsions:
REMARK  status: ('A' for Active; 'I' for Inactive)
REMARK    1  A    between atoms: N_2  and  C_4 
REMARK    2  A    between atoms: C_4  and  C_5 
ROOT
ATOM      1  C   UNL d   1       5.775   1.089 -14.390  0.00  0.00     0.180 C 
ATOM      2  C   UNL d   1       7.094   0.946 -15.119  0.00  0.00     0.064 C 
ATOM      3  C   UNL d   1       7.338   2.390 -15.474  0.00  0.00     0.136 C 
ATOM      4  C   UNL d   1       8.765   2.631 -15.931  0.00  0.00     0.014 A 
ATOM      5  C   UNL d   1       9.071   2.642 -17.307  0.00  0.00     0.000 A 
ATOM      6  C   UNL d   1      10.416   2.779 -17.701  0.00  0.00     0.020 A 
ATOM      7  C   UNL d   1      11.403   2.878 -16.704  0.00  0.00     0.099 A 
ATOM      8  N   UNL d   1      11.125   2.843 -15.384  0.00  0.00    -0.248 NA
ATOM      9  C   UNL d   1       9.833   2.724 -15.013  0.00  0.00     0.061 A 
ATOM     10  C   UNL d   1       9.558   2.698 -13.531  0.00  0.00     0.073 C 
ATOM     11  C   UNL d   1       8.723   3.877 -13.105  0.00  0.00     0.002 A 
ATOM     12  C   UNL d   1       9.279   4.811 -12.205  0.00  0.00    -0.002 A 
ATOM     13  C   UNL d   1       8.534   5.922 -11.774  0.00  0.00    -0.000 A 
ATOM     14  C   UNL d   1       7.204   6.086 -12.180  0.00  0.00     0.002 A 
ATOM     15  C   UNL d   1       6.622   5.107 -13.018  0.00  0.00     0.019 A 
ATOM     16  C   UNL d   1       7.384   4.050 -13.522  0.00  0.00     0.079 A 
ATOM     17  N   UNL d   1       6.727   3.166 -14.396  0.00  0.00    -0.237 N 
ATOM     18  O   UNL d   1       5.880   2.301 -13.660  0.00  0.00    -0.258 OA
ENDROOT
BRANCH   1  19
ATOM     19  C   UNL d   1       5.360  -0.023 -13.430  0.00  0.00     0.282 C 
BRANCH  19  20
ATOM     20  N   UNL d   1       4.736  -1.170 -14.122  0.00  0.00     0.144 N 
ATOM     21  C   UNL d   1       3.459  -0.943 -14.787  0.00  0.00     0.286 C 
ATOM     22  C   UNL d   1       5.656  -1.842 -15.007  0.00  0.00     0.286 C 
ENDBRANCH  19  20
ENDBRANCH   1  19
TORSDOF 2
