REMARK  8 active torsions:
REMARK  status: ('A' for Active; 'I' for Inactive)
REMARK    1  A    between atoms: C_2  and  C_3 
REMARK    2  A    between atoms: C_3  and  N_4 
REMARK    3  A    between atoms: N_4  and  C_5 
REMARK    4  A    between atoms: N_4  and  C_8 
REMARK    5  A    between atoms: C_5  and  C_6 
REMARK    6  A    between atoms: C_13  and  C_14 
REMARK    7  A    between atoms: C_14  and  C_15 
REMARK    8  A    between atoms: C_15  and  C_16 
ROOT
ATOM      1  C   UNL d   1       9.234   4.429 -13.177  0.00  0.00     0.224 C 
ATOM      2  C   UNL d   1       8.470   5.731 -13.415  0.00  0.00     0.038 C 
ATOM      3  C   UNL d   1       9.059   6.883 -12.599  0.00  0.00     0.028 C 
ATOM      4  C   UNL d   1       9.316   6.496 -11.151  0.00  0.00    -0.026 A 
ATOM      5  C   UNL d   1       9.460   7.516 -10.206  0.00  0.00    -0.009 A 
ATOM      6  C   UNL d   1       9.691   7.211  -8.855  0.00  0.00    -0.022 A 
ATOM      7  C   UNL d   1       9.710   5.864  -8.439  0.00  0.00    -0.005 A 
ATOM      8  C   UNL d   1       9.530   4.839  -9.370  0.00  0.00    -0.005 A 
ATOM      9  C   UNL d   1       9.340   5.138 -10.736  0.00  0.00    -0.024 A 
ATOM     10  C   UNL d   1       9.140   4.002 -11.714  0.00  0.00     0.059 C 
ENDROOT
BRANCH   6  11
ATOM     11  C   UNL d   1       9.855   8.315  -7.831  0.00  0.00     0.031 C 
BRANCH  11  12
ATOM     12  C   UNL d   1      11.319   8.533  -7.429  0.00  0.00     0.031 C 
BRANCH  12  13
ATOM     13  C   UNL d   1      11.516   8.452  -5.928  0.00  0.00    -0.022 A 
ATOM     14  C   UNL d   1      11.836   9.596  -5.186  0.00  0.00    -0.002 A 
ATOM     15  C   UNL d   1      12.069   9.499  -3.797  0.00  0.00     0.027 A 
ATOM     16  C   UNL d   1      12.027   8.244  -3.162  0.00  0.00     0.131 A 
ATOM     17  C   UNL d   1      11.705   7.093  -3.900  0.00  0.00     0.027 A 
ATOM     18  O   UNL d   1      12.293   8.156  -1.829  0.00  0.00    -0.190 OA
ATOM     19  C   UNL d   1      11.467   7.191  -5.282  0.00  0.00    -0.002 A 
ENDBRANCH  12  13
ENDBRANCH  11  12
ENDBRANCH   6  11
BRANCH   1  20
ATOM     20  N   UNL d   1       8.830   3.331 -14.105  0.00  0.00     0.135 N 
BRANCH  20  21
ATOM     21  C   UNL d   1       9.389   3.519 -15.457  0.00  0.00     0.250 C 
BRANCH  21  22
ATOM     22  C   UNL d   1      10.907   3.244 -15.536  0.00  0.00     0.035 C 
ATOM     23  C   UNL d   1      11.188   1.741 -15.616  0.00  0.00     0.002 C 
ENDBRANCH  21  22
ENDBRANCH  20  21
BRANCH  20  24
ATOM     24  C   UNL d   1       7.373   3.110 -14.100  0.00  0.00     0.250 C 
BRANCH  24  25
ATOM     25  C   UNL d   1       6.907   1.859 -14.868  0.00  0.00     0.035 C 
ATOM     26  C   UNL d   1       7.511   0.571 -14.287  0.00  0.00     0.002 C 
ENDBRANCH  24  25
ENDBRANCH  20  24
ENDBRANCH   1  20
TORSDOF 8
