REMARK  7 active torsions:
REMARK  status: ('A' for Active; 'I' for Inactive)
REMARK    1  A    between atoms: C_2  and  C_3 
REMARK       I    between atoms: C_2  and  N_10 
REMARK    2  A    between atoms: C_3  and  C_4 
REMARK    3  A    between atoms: N_10  and  C_11 
REMARK    4  A    between atoms: C_14  and  C_15 
REMARK    5  A    between atoms: C_15  and  C_16 
REMARK    6  A    between atoms: C_16  and  N_17 
REMARK    7  A    between atoms: C_20  and  C_21 
ROOT
ATOM      1  C   UNL d   1       9.905   6.376 -11.977  0.00  0.00     0.035 C 
ENDROOT
BRANCH   1   2
ATOM      2  C   UNL d   1       9.548   7.103 -10.709  0.00  0.00     0.002 C 
ATOM      3  C   UNL d   1       9.349   6.076  -9.575  0.00  0.00     0.002 C 
ATOM      4  C   UNL d   1       8.946   6.735  -8.283  0.00  0.00     0.024 C 
ATOM      5  C   UNL d   1       9.959   7.812  -7.929  0.00  0.00     0.106 C 
ATOM      6  C   UNL d   1      10.153   8.876  -9.045  0.00  0.00     0.024 C 
ATOM      7  C   UNL d   1      10.575   8.188 -10.334  0.00  0.00     0.002 C 
BRANCH   5   8
ATOM      8  N   UNL d   1       9.579   8.467  -6.718  0.00  0.00    -0.240 NA
ATOM      9  C   UNL d   1      10.464   9.115  -5.941  0.00  0.00     0.254 C 
ATOM     10  O   UNL d   1      10.110  10.001  -5.209  0.00  0.00    -0.271 OA
BRANCH   9  11
ATOM     11  C   UNL d   1      11.944   8.793  -5.900  0.00  0.00     0.119 C 
BRANCH  11  12
ATOM     12  C   UNL d   1      12.363   8.390  -4.445  0.00  0.00     0.125 C 
ATOM     13  O   UNL d   1      11.612   7.231  -4.087  0.00  0.00    -0.356 OA
ATOM     14  C   UNL d   1      12.135   6.611  -2.920  0.00  0.00     0.142 C 
ATOM     15  C   UNL d   1      12.167   7.594  -1.755  0.00  0.00     0.032 C 
ATOM     16  C   UNL d   1      12.794   8.929  -2.067  0.00  0.00     0.005 C 
ATOM     17  C   UNL d   1      12.218   9.481  -3.351  0.00  0.00     0.030 C 
ENDBRANCH  11  12
ENDBRANCH   9  11
ENDBRANCH   5   8
ENDBRANCH   1   2
BRANCH   1  18
ATOM     18  C   UNL d   1       9.019   5.267 -12.493  0.00  0.00     0.250 C 
BRANCH  18  19
ATOM     19  N   UNL d   1       9.597   4.646 -13.673  0.00  0.00     0.137 N 
ATOM     20  C   UNL d   1      10.618   3.650 -13.331  0.00  0.00     0.251 C 
ATOM     21  C   UNL d   1      11.195   3.010 -14.596  0.00  0.00     0.040 C 
ATOM     22  C   UNL d   1      10.104   2.358 -15.466  0.00  0.00     0.028 C 
ATOM     23  C   UNL d   1       8.962   3.351 -15.682  0.00  0.00     0.040 C 
ATOM     24  C   UNL d   1       8.500   3.966 -14.347  0.00  0.00     0.251 C 
BRANCH  22  25
ATOM     25  C   UNL d   1      10.641   1.865 -16.802  0.00  0.00     0.002 A 
ATOM     26  C   UNL d   1      10.302   0.596 -17.308  0.00  0.00     0.115 A 
ATOM     27  C   UNL d   1      10.783   0.149 -18.524  0.00  0.00     0.119 A 
ATOM     28  O   UNL d   1       9.489  -0.345 -16.772  0.00  0.00    -0.300 OA
ATOM     29  C   UNL d   1      11.638   0.929 -19.315  0.00  0.00     0.026 A 
ATOM     30  O   UNL d   1      10.283  -1.083 -18.785  0.00  0.00    -0.300 OA
ATOM     31  C   UNL d   1      11.990   2.210 -18.835  0.00  0.00     0.002 A 
ATOM     32  C   UNL d   1      11.486   2.676 -17.599  0.00  0.00    -0.002 A 
ATOM     33  C   UNL d   1       9.462  -1.397 -17.698  0.00  0.00     0.304 A 
ENDBRANCH  22  25
ENDBRANCH  18  19
ENDBRANCH   1  18
TORSDOF 7
