REMARK  7 active torsions:
REMARK  status: ('A' for Active; 'I' for Inactive)
REMARK    1  A    between atoms: C_2  and  C_3 
REMARK    2  A    between atoms: C_3  and  N_4 
REMARK    3  A    between atoms: N_4  and  C_5 
REMARK    4  A    between atoms: N_4  and  C_8 
REMARK    5  A    between atoms: C_5  and  C_6 
REMARK    6  A    between atoms: C_16  and  C_17 
REMARK    7  A    between atoms: C_22  and  O_23 
ROOT
ATOM      1  C   UNL d   1       8.202   4.491 -12.514  0.00  0.00     0.253 C 
ATOM      2  C   UNL d   1       8.834   4.945 -13.827  0.00  0.00     0.182 C 
ATOM      3  O   UNL d   1       9.225   3.791 -14.552  0.00  0.00    -0.329 OA
ATOM      4  C   UNL d   1       8.225   2.863 -14.798  0.00  0.00     0.090 A 
ATOM      5  C   UNL d   1       7.111   2.735 -13.941  0.00  0.00     0.002 A 
ATOM      6  C   UNL d   1       6.157   1.716 -14.147  0.00  0.00    -0.002 A 
ATOM      7  C   UNL d   1       6.288   0.866 -15.261  0.00  0.00    -0.000 A 
ATOM      8  C   UNL d   1       7.344   1.051 -16.166  0.00  0.00     0.002 A 
ATOM      9  C   UNL d   1       8.338   2.041 -15.951  0.00  0.00     0.024 A 
ATOM     10  C   UNL d   1       6.927   3.695 -12.778  0.00  0.00     0.064 C 
ENDROOT
BRANCH   9  11
ATOM     11  C   UNL d   1       9.450   2.224 -16.894  0.00  0.00     0.024 A 
ATOM     12  C   UNL d   1      10.188   1.113 -17.382  0.00  0.00     0.094 A 
ATOM     13  C   UNL d   1      11.262   1.313 -18.277  0.00  0.00     0.024 A 
ATOM     14  C   UNL d   1      11.636   2.611 -18.675  0.00  0.00     0.002 A 
ATOM     15  C   UNL d   1      10.917   3.719 -18.190  0.00  0.00     0.000 A 
ATOM     16  C   UNL d   1       9.829   3.522 -17.328  0.00  0.00     0.002 A 
BRANCH  12  17
ATOM     17  O   UNL d   1       9.825  -0.135 -16.920  0.00  0.00    -0.328 OA
ATOM     18  C   UNL d   1      10.191  -1.256 -17.701  0.00  0.00     0.181 C 
ENDBRANCH  12  17
ENDBRANCH   9  11
BRANCH   1  19
ATOM     19  N   UNL d   1       7.960   5.584 -11.565  0.00  0.00     0.138 N 
BRANCH  19  20
ATOM     20  C   UNL d   1       9.113   5.877 -10.702  0.00  0.00     0.250 C 
BRANCH  20  21
ATOM     21  C   UNL d   1       9.526   4.727  -9.754  0.00  0.00     0.035 C 
ATOM     22  C   UNL d   1       8.395   4.267  -8.826  0.00  0.00     0.002 C 
ENDBRANCH  20  21
ENDBRANCH  19  20
BRANCH  19  23
ATOM     23  C   UNL d   1       7.418   6.810 -12.170  0.00  0.00     0.250 C 
BRANCH  23  24
ATOM     24  C   UNL d   1       5.876   6.921 -12.048  0.00  0.00     0.035 C 
ATOM     25  C   UNL d   1       5.406   8.299 -12.534  0.00  0.00     0.002 C 
ENDBRANCH  23  24
ENDBRANCH  19  23
ENDBRANCH   1  19
TORSDOF 7
