REMARK  6 active torsions:
REMARK  status: ('A' for Active; 'I' for Inactive)
REMARK    1  A    between atoms: C_2  and  C_3 
REMARK    2  A    between atoms: N_13  and  C_14 
REMARK    3  A    between atoms: C_14  and  C_15 
REMARK    4  A    between atoms: C_15  and  C_17 
REMARK    5  A    between atoms: C_17  and  N_18 
REMARK       I    between atoms: N_21  and  C_22 
REMARK    6  A    between atoms: C_22  and  C_24 
ROOT
ATOM      1  C   UNL d   1       9.201   5.357 -11.615  0.00  0.00     0.208 C 
ATOM      2  O   UNL d   1       8.487   4.534 -10.717  0.00  0.00    -0.219 OA
ENDROOT
BRANCH   1   3
ATOM      3  C   UNL d   1       8.399   5.351 -12.938  0.00  0.00     0.148 C 
BRANCH   3   4
ATOM      4  N   UNL d   1       8.847   4.283 -13.847  0.00  0.00    -0.247 N 
ATOM      5  C   UNL d   1       8.113   3.208 -14.178  0.00  0.00     0.348 A 
ATOM      6  N   UNL d   1       8.860   2.433 -14.967  0.00  0.00    -0.209 NA
ATOM      7  O   UNL d   1       6.946   2.988 -13.860  0.00  0.00    -0.245 OA
ATOM      8  C   UNL d   1      10.181   2.977 -15.236  0.00  0.00     0.179 A 
ATOM      9  C   UNL d   1      11.247   2.022 -14.678  0.00  0.00     0.039 C 
ATOM     10  C   UNL d   1      10.070   4.239 -14.394  0.00  0.00     0.265 A 
ATOM     11  O   UNL d   1      10.971   5.075 -14.259  0.00  0.00    -0.269 OA
BRANCH   8  12
ATOM     12  C   UNL d   1      10.418   3.348 -16.711  0.00  0.00     0.006 A 
ATOM     13  C   UNL d   1      11.724   3.660 -17.166  0.00  0.00     0.000 A 
ATOM     14  C   UNL d   1      11.962   3.973 -18.517  0.00  0.00     0.029 A 
ATOM     15  C   UNL d   1      10.896   4.000 -19.432  0.00  0.00     0.140 A 
ATOM     16  C   UNL d   1       9.591   3.708 -18.997  0.00  0.00     0.029 A 
ATOM     17  F   UNL d   1      11.126   4.306 -20.730  0.00  0.00    -0.204 F 
ATOM     18  C   UNL d   1       9.353   3.378 -17.647  0.00  0.00     0.000 A 
ENDBRANCH   8  12
ENDBRANCH   3   4
ENDBRANCH   1   3
BRANCH   1  19
ATOM     19  C   UNL d   1       9.288   6.764 -11.045  0.00  0.00     0.285 C 
BRANCH  19  20
ATOM     20  N   UNL d   1      10.283   6.951 -10.001  0.00  0.00     0.144 N 
ATOM     21  C   UNL d   1       9.667   6.803  -8.686  0.00  0.00     0.274 C 
ATOM     22  C   UNL d   1      10.689   6.933  -7.563  0.00  0.00     0.140 C 
ATOM     23  N   UNL d   1      11.378   8.228  -7.657  0.00  0.00    -0.312 N 
ATOM     24  C   UNL d   1      11.921   8.495  -8.999  0.00  0.00     0.140 C 
ATOM     25  C   UNL d   1      11.513   9.099  -6.623  0.00  0.00     0.257 C 
ATOM     26  C   UNL d   1      10.848   8.292 -10.065  0.00  0.00     0.274 C 
ATOM     27  O   UNL d   1      11.682  10.310  -6.838  0.00  0.00    -0.267 OA
BRANCH  25  28
ATOM     28  C   UNL d   1      11.543   8.597  -5.196  0.00  0.00     0.056 A 
ATOM     29  C   UNL d   1      11.855   7.254  -4.860  0.00  0.00     0.005 A 
ATOM     30  C   UNL d   1      11.926   6.845  -3.515  0.00  0.00     0.000 A 
ATOM     31  C   UNL d   1      11.797   7.780  -2.477  0.00  0.00     0.000 A 
ATOM     32  C   UNL d   1      11.590   9.140  -2.804  0.00  0.00     0.000 A 
ATOM     33  C   UNL d   1      11.425   9.547  -4.152  0.00  0.00     0.005 A 
ENDBRANCH  25  28
ENDBRANCH  19  20
ENDBRANCH   1  19
TORSDOF 6
