REMARK  7 active torsions:
REMARK  status: ('A' for Active; 'I' for Inactive)
REMARK       I    between atoms: C_2  and  N_3 
REMARK    1  A    between atoms: C_2  and  C_24 
REMARK    2  A    between atoms: N_3  and  C_4 
REMARK    3  A    between atoms: N_7  and  C_8 
REMARK    4  A    between atoms: C_8  and  C_9 
REMARK    5  A    between atoms: C_9  and  O_10 
REMARK    6  A    between atoms: O_10  and  C_11 
REMARK    7  A    between atoms: C_16  and  C_17 
ROOT
ATOM      1  C   UNL d   1       9.605   4.302 -12.804  0.00  0.00     0.142 C 
ATOM      2  C   UNL d   1       8.674   3.208 -13.320  0.00  0.00     0.062 C 
ATOM      3  C   UNL d   1       8.479   3.532 -14.781  0.00  0.00     0.253 C 
ATOM      4  N   UNL d   1       9.685   4.215 -15.165  0.00  0.00     0.142 N 
ATOM      5  C   UNL d   1       9.876   5.127 -14.054  0.00  0.00     0.275 C 
ENDROOT
BRANCH   4   6
ATOM      6  C   UNL d   1       9.512   4.979 -16.404  0.00  0.00     0.283 C 
BRANCH   6   7
ATOM      7  C   UNL d   1      10.837   5.575 -16.866  0.00  0.00     0.184 C 
BRANCH   7   8
ATOM      8  O   UNL d   1      10.606   6.300 -18.056  0.00  0.00    -0.329 OA
BRANCH   8   9
ATOM      9  C   UNL d   1      11.680   6.837 -18.727  0.00  0.00     0.094 A 
ATOM     10  C   UNL d   1      11.429   7.447 -19.987  0.00  0.00     0.022 A 
ATOM     11  C   UNL d   1      12.509   8.037 -20.684  0.00  0.00     0.002 A 
ATOM     12  C   UNL d   1      13.813   8.024 -20.158  0.00  0.00     0.000 A 
ATOM     13  C   UNL d   1      14.061   7.415 -18.918  0.00  0.00     0.002 A 
ATOM     14  C   UNL d   1      13.004   6.825 -18.206  0.00  0.00     0.024 A 
BRANCH  10  15
ATOM     15  C   UNL d   1      10.074   7.476 -20.587  0.00  0.00     0.002 A 
ATOM     16  C   UNL d   1       9.251   6.323 -20.595  0.00  0.00     0.000 A 
ATOM     17  C   UNL d   1       7.958   6.355 -21.148  0.00  0.00     0.000 A 
ATOM     18  C   UNL d   1       7.466   7.539 -21.728  0.00  0.00     0.000 A 
ATOM     19  C   UNL d   1       8.276   8.690 -21.745  0.00  0.00     0.000 A 
ATOM     20  C   UNL d   1       9.567   8.654 -21.183  0.00  0.00     0.000 A 
ENDBRANCH  10  15
ENDBRANCH   8   9
ENDBRANCH   7   8
ENDBRANCH   6   7
ENDBRANCH   4   6
BRANCH   1  21
ATOM     21  N   UNL d   1       9.066   5.053 -11.663  0.00  0.00    -0.234 NA
ATOM     22  C   UNL d   1       9.260   6.362 -11.369  0.00  0.00     0.277 C 
ATOM     23  O   UNL d   1       9.445   7.255 -12.201  0.00  0.00    -0.266 OA
BRANCH  22  24
ATOM     24  C   UNL d   1       9.448   6.636  -9.897  0.00  0.00     0.087 A 
ATOM     25  C   UNL d   1      10.316   7.656  -9.447  0.00  0.00     0.172 A 
ATOM     26  C   UNL d   1      10.434   7.965  -8.074  0.00  0.00     0.168 A 
ATOM     27  F   UNL d   1      11.071   8.353 -10.331  0.00  0.00    -0.202 F 
ATOM     28  C   UNL d   1       9.664   7.251  -7.131  0.00  0.00     0.032 A 
ATOM     29  F   UNL d   1      11.266   8.959  -7.670  0.00  0.00    -0.202 F 
ATOM     30  C   UNL d   1       8.790   6.237  -7.567  0.00  0.00     0.003 A 
ATOM     31  C   UNL d   1       8.693   5.913  -8.933  0.00  0.00     0.007 A 
ENDBRANCH  22  24
ENDBRANCH   1  21
TORSDOF 7
