REMARK  6 active torsions:
REMARK  status: ('A' for Active; 'I' for Inactive)
REMARK    1  A    between atoms: C_5  and  C_6 
REMARK    2  A    between atoms: C_6  and  C_7 
REMARK    3  A    between atoms: C_7  and  C_8 
REMARK    4  A    between atoms: C_8  and  C_9 
REMARK    5  A    between atoms: C_9  and  N_10 
REMARK    6  A    between atoms: N_13  and  C_14 
ROOT
ATOM      1  N   UNL d   1       7.931   5.040 -11.984  0.00  0.00     0.141 N 
ATOM      2  C   UNL d   1       8.827   4.092 -12.661  0.00  0.00     0.274 C 
ATOM      3  C   UNL d   1       8.250   3.699 -14.035  0.00  0.00     0.138 C 
ATOM      4  N   UNL d   1       6.891   3.189 -13.889  0.00  0.00    -0.330 N 
ATOM      5  C   UNL d   1       5.983   4.028 -13.116  0.00  0.00     0.138 C 
ATOM      6  C   UNL d   1       6.625   4.413 -11.773  0.00  0.00     0.274 C 
ENDROOT
BRANCH   1   7
ATOM      7  C   UNL d   1       8.482   5.421 -10.683  0.00  0.00     0.250 C 
BRANCH   7   8
ATOM      8  C   UNL d   1       9.524   6.542 -10.821  0.00  0.00     0.036 C 
BRANCH   8   9
ATOM      9  C   UNL d   1      10.287   6.804  -9.511  0.00  0.00     0.007 C 
BRANCH   9  10
ATOM     10  C   UNL d   1       9.471   7.605  -8.482  0.00  0.00     0.026 C 
BRANCH  10  11
ATOM     11  C   UNL d   1      10.308   8.015  -7.285  0.00  0.00    -0.022 A 
ATOM     12  C   UNL d   1      11.090   9.188  -7.339  0.00  0.00    -0.002 A 
ATOM     13  C   UNL d   1      11.857   9.583  -6.226  0.00  0.00     0.029 A 
ATOM     14  C   UNL d   1      11.856   8.798  -5.057  0.00  0.00     0.140 A 
ATOM     15  F   UNL d   1      12.592   9.175  -3.985  0.00  0.00    -0.204 F 
ATOM     16  C   UNL d   1      11.091   7.615  -5.009  0.00  0.00     0.029 A 
ATOM     17  C   UNL d   1      10.311   7.231  -6.117  0.00  0.00    -0.002 A 
ENDBRANCH  10  11
ENDBRANCH   9  10
ENDBRANCH   8   9
ENDBRANCH   7   8
ENDBRANCH   1   7
BRANCH   4  18
ATOM     18  C   UNL d   1       6.517   1.922 -14.374  0.00  0.00     0.140 A 
ATOM     19  N   UNL d   1       5.575   1.234 -13.680  0.00  0.00    -0.226 NA
ATOM     20  C   UNL d   1       5.135   0.062 -14.187  0.00  0.00     0.112 A 
ATOM     21  C   UNL d   1       5.626  -0.501 -15.379  0.00  0.00     0.077 A 
ATOM     22  C   UNL d   1       6.625   0.188 -16.078  0.00  0.00     0.016 A 
ATOM     23 CL   UNL d   1       5.033  -2.000 -15.976  0.00  0.00    -0.081 Cl
ATOM     24  C   UNL d   1       7.075   1.423 -15.574  0.00  0.00     0.038 A 
ENDBRANCH   4  18
TORSDOF 6
