REMARK  2 active torsions:
REMARK  status: ('A' for Active; 'I' for Inactive)
REMARK    1  A    between atoms: N_2  and  C_4 
REMARK    2  A    between atoms: C_4  and  C_5 
ROOT
ATOM      1  C   UNL d   1       9.524   1.977 -17.477  0.00  0.00     0.173 C 
ATOM      2  C   UNL d   1       8.446   1.088 -18.096  0.00  0.00     0.057 C 
ATOM      3  C   UNL d   1       7.332   1.231 -17.073  0.00  0.00     0.113 C 
ATOM      4  C   UNL d   1       6.158   0.254 -17.212  0.00  0.00    -0.009 A 
ATOM      5  C   UNL d   1       5.659   0.016 -18.515  0.00  0.00    -0.003 A 
ATOM      6  C   UNL d   1       4.562  -0.836 -18.734  0.00  0.00    -0.000 A 
ATOM      7  C   UNL d   1       3.935  -1.460 -17.645  0.00  0.00    -0.000 A 
ATOM      8  C   UNL d   1       4.404  -1.221 -16.340  0.00  0.00    -0.004 A 
ATOM      9  C   UNL d   1       5.502  -0.367 -16.104  0.00  0.00    -0.020 A 
ATOM     10  C   UNL d   1       5.938  -0.189 -14.651  0.00  0.00     0.053 C 
ATOM     11  C   UNL d   1       6.268   1.235 -14.229  0.00  0.00    -0.005 A 
ATOM     12  C   UNL d   1       5.507   1.881 -13.232  0.00  0.00    -0.003 A 
ATOM     13  C   UNL d   1       5.856   3.178 -12.802  0.00  0.00    -0.000 A 
ATOM     14  C   UNL d   1       6.976   3.826 -13.363  0.00  0.00     0.001 A 
ATOM     15  C   UNL d   1       7.738   3.184 -14.359  0.00  0.00     0.013 A 
ATOM     16  C   UNL d   1       7.380   1.890 -14.798  0.00  0.00     0.058 A 
ATOM     17  N   UNL d   1       8.069   1.238 -15.825  0.00  0.00    -0.142 NA
ATOM     18  O   UNL d   1       9.395   1.718 -16.082  0.00  0.00    -0.279 OA
ENDROOT
BRANCH   1  19
ATOM     19  C   UNL d   1      10.944   1.658 -17.980  0.00  0.00     0.282 C 
BRANCH  19  20
ATOM     20  N   UNL d   1      11.889   2.749 -17.742  0.00  0.00     0.144 N 
ATOM     21  C   UNL d   1      13.135   2.456 -18.436  0.00  0.00     0.286 C 
ATOM     22  C   UNL d   1      12.180   2.907 -16.321  0.00  0.00     0.286 C 
ENDBRANCH  19  20
ENDBRANCH   1  19
TORSDOF 2
