REMARK  7 active torsions:
REMARK  status: ('A' for Active; 'I' for Inactive)
REMARK    1  A    between atoms: N_2  and  C_3 
REMARK    2  A    between atoms: N_2  and  S_26 
REMARK    3  A    between atoms: C_6  and  C_7 
REMARK    4  A    between atoms: C_7  and  C_8 
REMARK    5  A    between atoms: C_8  and  N_9 
REMARK    6  A    between atoms: N_12  and  C_13 
REMARK    7  A    between atoms: S_26  and  C_29 
ROOT
ATOM      1  C   UNL d   1       8.380   5.152 -12.867  0.00  0.00     0.035 C 
ENDROOT
BRANCH   1   2
ATOM      2  C   UNL d   1       8.508   5.793 -11.479  0.00  0.00     0.002 C 
ATOM      3  C   UNL d   1       8.501   4.733 -10.366  0.00  0.00     0.002 C 
ATOM      4  C   UNL d   1       8.573   5.370  -8.985  0.00  0.00     0.023 C 
ATOM      5  C   UNL d   1       9.815   6.269  -8.821  0.00  0.00     0.092 C 
ATOM      6  C   UNL d   1       9.860   7.321  -9.955  0.00  0.00     0.023 C 
ATOM      7  C   UNL d   1       9.751   6.679 -11.344  0.00  0.00     0.002 C 
BRANCH   5   8
ATOM      8  N   UNL d   1       9.859   6.907  -7.488  0.00  0.00    -0.274 N 
ATOM      9  C   UNL d   1       8.607   7.032  -6.727  0.00  0.00     0.138 C 
BRANCH   8  10
ATOM     10  S   UNL d   1      11.034   8.144  -7.194  0.00  0.00     0.270 S 
ATOM     11  O   UNL d   1      12.255   7.829  -7.938  0.00  0.00    -0.200 OA
ATOM     12  O   UNL d   1      10.369   9.452  -7.331  0.00  0.00    -0.200 OA
BRANCH  10  13
ATOM     13  C   UNL d   1      11.426   7.961  -5.485  0.00  0.00     0.133 A 
ATOM     14  S   UNL d   1      11.850   9.331  -4.509  0.00  0.00    -0.074 SA
ATOM     15  C   UNL d   1      12.116   8.299  -3.131  0.00  0.00     0.036 A 
ATOM     16  C   UNL d   1      11.870   6.982  -3.429  0.00  0.00     0.008 A 
ATOM     17  C   UNL d   1      11.465   6.785  -4.780  0.00  0.00     0.020 A 
ENDBRANCH  10  13
ENDBRANCH   8  10
ENDBRANCH   5   8
ENDBRANCH   1   2
BRANCH   1  18
ATOM     18  C   UNL d   1       9.350   3.973 -13.101  0.00  0.00     0.250 C 
BRANCH  18  19
ATOM     19  N   UNL d   1       9.161   3.380 -14.423  0.00  0.00     0.141 N 
ATOM     20  C   UNL d   1       9.515   1.959 -14.366  0.00  0.00     0.274 C 
ATOM     21  C   UNL d   1       9.316   1.306 -15.748  0.00  0.00     0.138 C 
ATOM     22  N   UNL d   1      10.098   2.023 -16.764  0.00  0.00    -0.329 N 
ATOM     23  C   UNL d   1       9.804   3.458 -16.782  0.00  0.00     0.138 C 
ATOM     24  C   UNL d   1      10.022   4.061 -15.385  0.00  0.00     0.274 C 
BRANCH  22  25
ATOM     25  C   UNL d   1      11.010   1.390 -17.589  0.00  0.00     0.148 A 
ATOM     26  C   UNL d   1      12.209   2.033 -18.134  0.00  0.00     0.042 A 
ATOM     27  C   UNL d   1      12.909   1.119 -18.980  0.00  0.00     0.050 A 
ATOM     28  C   UNL d   1      12.783   3.320 -17.989  0.00  0.00     0.004 A 
ATOM     29  S   UNL d   1      12.039  -0.404 -18.962  0.00  0.00     0.015 SA
ATOM     30  C   UNL d   1      14.091   1.466 -19.659  0.00  0.00     0.008 A 
ATOM     31  N   UNL d   1      10.833   0.120 -17.923  0.00  0.00    -0.192 NA
ATOM     32  C   UNL d   1      14.615   2.768 -19.515  0.00  0.00     0.001 A 
ATOM     33  C   UNL d   1      13.958   3.687 -18.677  0.00  0.00     0.000 A 
ENDBRANCH  22  25
ENDBRANCH  18  19
ENDBRANCH   1  18
TORSDOF 7
