REMARK  9 active torsions:
REMARK  status: ('A' for Active; 'I' for Inactive)
REMARK    1  A    between atoms: O_2  and  C_3 
REMARK    2  A    between atoms: C_5  and  C_6 
REMARK    3  A    between atoms: C_6  and  N_7 
REMARK       I    between atoms: N_7  and  C_8 
REMARK    4  A    between atoms: C_8  and  C_10 
REMARK    5  A    between atoms: C_10  and  C_11 
REMARK    6  A    between atoms: C_11  and  C_12 
REMARK    7  A    between atoms: C_12  and  C_13 
REMARK    8  A    between atoms: C_13  and  C_14 
REMARK    9  A    between atoms: C_15  and  C_16 
ROOT
ATOM      1  N   UNL d   1       7.524   5.377 -11.206  0.00  0.00    -0.233 NA
ATOM      2  C   UNL d   1       8.662   6.092 -11.217  0.00  0.00     0.252 C 
ATOM      3  O   UNL d   1       9.048   6.761 -12.169  0.00  0.00    -0.271 OA
ENDROOT
BRANCH   1   4
ATOM      4  C   UNL d   1       6.606   5.183 -12.319  0.00  0.00     0.155 C 
BRANCH   4   5
ATOM      5  C   UNL d   1       7.036   4.060 -13.258  0.00  0.00     0.004 A 
ATOM      6  C   UNL d   1       6.251   2.893 -13.405  0.00  0.00     0.024 A 
ATOM      7  C   UNL d   1       6.666   1.828 -14.250  0.00  0.00     0.119 A 
ATOM      8  C   UNL d   1       7.882   1.957 -14.956  0.00  0.00     0.153 A 
ATOM      9  C   UNL d   1       8.669   3.111 -14.814  0.00  0.00     0.029 A 
ATOM     10  O   UNL d   1       8.316   0.972 -15.794  0.00  0.00    -0.188 OA
ATOM     11  C   UNL d   1       8.238   4.158 -13.988  0.00  0.00    -0.000 A 
BRANCH   7  12
ATOM     12  O   UNL d   1       5.954   0.661 -14.431  0.00  0.00    -0.326 OA
ATOM     13  C   UNL d   1       4.879   0.391 -13.552  0.00  0.00     0.181 C 
ENDBRANCH   7  12
ENDBRANCH   4   5
ENDBRANCH   1   4
BRANCH   2  14
ATOM     14  C   UNL d   1       9.509   6.034  -9.946  0.00  0.00     0.090 C 
BRANCH  14  15
ATOM     15  C   UNL d   1       9.779   7.427  -9.376  0.00  0.00     0.010 C 
BRANCH  15  16
ATOM     16  C   UNL d   1      10.749   7.403  -8.200  0.00  0.00     0.005 C 
BRANCH  16  17
ATOM     17  C   UNL d   1      10.718   8.719  -7.413  0.00  0.00     0.026 C 
BRANCH  17  18
ATOM     18  C   UNL d   1      11.671   8.688  -6.238  0.00  0.00    -0.031 C 
ATOM     19  C   UNL d   1      11.344   8.227  -5.020  0.00  0.00    -0.031 C 
BRANCH  19  20
ATOM     20  C   UNL d   1      12.285   8.166  -3.833  0.00  0.00     0.022 C 
ATOM     21  C   UNL d   1      12.158   6.830  -3.088  0.00  0.00     0.005 C 
ATOM     22  C   UNL d   1      12.055   9.342  -2.891  0.00  0.00     0.005 C 
ENDBRANCH  19  20
ENDBRANCH  17  18
ENDBRANCH  16  17
ENDBRANCH  15  16
ENDBRANCH  14  15
ENDBRANCH   2  14
TORSDOF 9
