REMARK  5 active torsions:
REMARK  status: ('A' for Active; 'I' for Inactive)
REMARK    1  A    between atoms: C_3  and  C_4 
REMARK    2  A    between atoms: C_12  and  C_13 
REMARK    3  A    between atoms: N_16  and  C_17 
REMARK    4  A    between atoms: C_17  and  C_18 
REMARK    5  A    between atoms: C_18  and  C_19 
ROOT
ATOM      1  C   UNL d   1       9.283   5.985 -10.397  0.00  0.00    -0.003 C 
ATOM      2  C   UNL d   1       9.436   6.870 -11.373  0.00  0.00     0.006 C 
ATOM      3  C   UNL d   1       9.378   6.511 -12.840  0.00  0.00     0.276 C 
ATOM      4  N   UNL d   1       9.411   5.077 -13.119  0.00  0.00     0.142 N 
ATOM      5  C   UNL d   1       8.493   4.387 -12.221  0.00  0.00     0.255 C 
ATOM      6  C   UNL d   1       8.978   4.541 -10.758  0.00  0.00     0.063 C 
ENDROOT
BRANCH   1   7
ATOM      7  C   UNL d   1       9.444   6.358  -9.012  0.00  0.00     0.096 A 
ATOM      8  C   UNL d   1      10.355   7.232  -8.494  0.00  0.00     0.017 A 
ATOM      9  C   UNL d   1      11.469   8.031  -9.132  0.00  0.00     0.034 C 
ATOM     10  C   UNL d   1      10.048   7.182  -7.093  0.00  0.00     0.100 A 
ATOM     11  N   UNL d   1       9.024   6.390  -6.831  0.00  0.00    -0.148 NA
ATOM     12  N   UNL d   1       8.658   5.891  -8.012  0.00  0.00    -0.149 NA
BRANCH  10  13
ATOM     13  C   UNL d   1      10.693   7.883  -5.987  0.00  0.00     0.019 A 
ATOM     14  C   UNL d   1      10.771   9.290  -6.000  0.00  0.00     0.002 A 
ATOM     15  C   UNL d   1      11.381   9.977  -4.937  0.00  0.00     0.000 A 
ATOM     16  C   UNL d   1      11.929   9.266  -3.851  0.00  0.00     0.000 A 
ATOM     17  C   UNL d   1      11.865   7.860  -3.829  0.00  0.00     0.000 A 
ATOM     18  C   UNL d   1      11.240   7.172  -4.893  0.00  0.00     0.002 A 
ENDBRANCH  10  13
ENDBRANCH   1   7
BRANCH   4  19
ATOM     19  C   UNL d   1       9.051   4.834 -14.523  0.00  0.00     0.255 C 
BRANCH  19  20
ATOM     20  C   UNL d   1      10.292   4.888 -15.427  0.00  0.00     0.062 C 
BRANCH  20  21
ATOM     21  C   UNL d   1       9.947   4.559 -16.868  0.00  0.00    -0.020 A 
ATOM     22  C   UNL d   1       9.809   5.589 -17.823  0.00  0.00    -0.004 A 
ATOM     23  C   UNL d   1       9.474   5.282 -19.156  0.00  0.00    -0.000 A 
ATOM     24  C   UNL d   1       9.285   3.942 -19.544  0.00  0.00    -0.000 A 
ATOM     25  C   UNL d   1       9.420   2.909 -18.595  0.00  0.00    -0.000 A 
ATOM     26  C   UNL d   1       9.752   3.217 -17.261  0.00  0.00    -0.004 A 
ENDBRANCH  20  21
ENDBRANCH  19  20
ENDBRANCH   4  19
TORSDOF 5
