REMARK  6 active torsions:
REMARK  status: ('A' for Active; 'I' for Inactive)
REMARK    1  A    between atoms: O_2  and  C_3 
REMARK    2  A    between atoms: C_9  and  N_10 
REMARK    3  A    between atoms: C_13  and  C_14 
REMARK    4  A    between atoms: C_14  and  N_15 
REMARK    5  A    between atoms: N_18  and  C_19 
REMARK    6  A    between atoms: C_31  and  O_32 
ROOT
ATOM      1  N   UNL d   1       8.397   3.671 -13.620  0.00  0.00    -0.334 N 
ATOM      2  C   UNL d   1       7.235   4.479 -13.846  0.00  0.00     0.103 C 
ATOM      3  C   UNL d   1       7.093   5.363 -12.616  0.00  0.00     0.028 C 
ATOM      4  C   UNL d   1       8.530   5.506 -12.142  0.00  0.00     0.058 C 
ATOM      5  C   UNL d   1       9.221   4.197 -12.554  0.00  0.00     0.105 C 
ENDROOT
BRANCH   1   6
ATOM      6  C   UNL d   1       8.775   2.660 -14.505  0.00  0.00     0.143 A 
ATOM      7  N   UNL d   1       7.994   1.571 -14.459  0.00  0.00    -0.207 NA
ATOM      8  C   UNL d   1       8.362   0.535 -15.204  0.00  0.00     0.200 A 
ATOM      9  N   UNL d   1       9.415   0.476 -16.015  0.00  0.00    -0.224 NA
ATOM     10  C   UNL d   1      10.181   1.583 -16.129  0.00  0.00     0.088 A 
ATOM     11  C   UNL d   1      11.280   1.601 -17.018  0.00  0.00     0.045 A 
ATOM     12  C   UNL d   1       9.887   2.746 -15.373  0.00  0.00     0.054 A 
ATOM     13  C   UNL d   1      12.083   2.756 -17.159  0.00  0.00     0.118 A 
ATOM     14  C   UNL d   1      11.790   3.910 -16.410  0.00  0.00     0.117 A 
ATOM     15  C   UNL d   1      10.682   3.909 -15.526  0.00  0.00     0.031 A 
BRANCH  13  16
ATOM     16  O   UNL d   1      13.170   2.818 -18.009  0.00  0.00    -0.326 OA
ATOM     17  C   UNL d   1      13.377   1.760 -18.928  0.00  0.00     0.181 C 
ENDBRANCH  13  16
BRANCH  14  18
ATOM     18  O   UNL d   1      12.612   5.010 -16.588  0.00  0.00    -0.326 OA
ATOM     19  C   UNL d   1      12.272   6.223 -15.937  0.00  0.00     0.181 C 
ENDBRANCH  14  18
ENDBRANCH   1   6
BRANCH   4  20
ATOM     20  C   UNL d   1       8.528   5.755 -10.649  0.00  0.00     0.252 C 
BRANCH  20  21
ATOM     21  N   UNL d   1       9.867   5.645 -10.124  0.00  0.00     0.141 N 
ATOM     22  C   UNL d   1      10.591   6.933 -10.141  0.00  0.00     0.274 C 
ATOM     23  C   UNL d   1      10.052   7.931  -9.105  0.00  0.00     0.137 C 
ATOM     24  N   UNL d   1       9.954   7.257  -7.822  0.00  0.00    -0.344 N 
ATOM     25  C   UNL d   1       9.276   5.971  -7.802  0.00  0.00     0.137 C 
ATOM     26  C   UNL d   1       9.922   5.024  -8.806  0.00  0.00     0.274 C 
BRANCH  24  27
ATOM     27  C   UNL d   1      10.431   7.845  -6.650  0.00  0.00     0.056 A 
ATOM     28  C   UNL d   1      10.316   9.234  -6.521  0.00  0.00     0.018 A 
ATOM     29  C   UNL d   1      10.799   9.886  -5.372  0.00  0.00     0.013 A 
ATOM     30  C   UNL d   1      11.384   9.136  -4.340  0.00  0.00     0.058 A 
ATOM     31  C   UNL d   1      11.485   7.743  -4.459  0.00  0.00     0.013 A 
ATOM     32 CL   UNL d   1      11.861   9.883  -2.884  0.00  0.00    -0.082 Cl
ATOM     33  C   UNL d   1      11.010   7.084  -5.608  0.00  0.00     0.018 A 
ENDBRANCH  24  27
ENDBRANCH  20  21
ENDBRANCH   4  20
TORSDOF 6
