REMARK  8 active torsions:
REMARK  status: ('A' for Active; 'I' for Inactive)
REMARK    1  A    between atoms: C_3  and  S_4 
REMARK    2  A    between atoms: S_4  and  C_5 
REMARK    3  A    between atoms: C_5  and  C_6 
REMARK    4  A    between atoms: C_6  and  C_7 
REMARK    5  A    between atoms: C_7  and  N_8 
REMARK    6  A    between atoms: C_12  and  C_13 
REMARK    7  A    between atoms: C_16  and  C_17 
REMARK    8  A    between atoms: C_26  and  C_27 
ROOT
ATOM      1  C   UNL d   1       6.373   0.279 -17.937  0.00  0.00     0.036 A 
ATOM      2  C   UNL d   1       7.486   0.223 -18.798  0.00  0.00     0.004 A 
ATOM      3  C   UNL d   1       7.359  -0.353 -20.071  0.00  0.00     0.010 A 
ATOM      4  C   UNL d   1       6.121  -0.880 -20.493  0.00  0.00     0.068 A 
ATOM      5  C   UNL d   1       5.999  -1.495 -21.799  0.00  0.00     0.101 C 
ATOM      6  N   UNL d   1       5.906  -1.985 -22.844  0.00  0.00    -0.191 NA
ATOM      7  C   UNL d   1       4.998  -0.809 -19.643  0.00  0.00     0.010 A 
ATOM      8  C   UNL d   1       5.121  -0.217 -18.377  0.00  0.00     0.004 A 
ENDROOT
BRANCH   1   9
ATOM      9  C   UNL d   1       6.542   0.827 -16.596  0.00  0.00     0.167 A 
ATOM     10  N   UNL d   1       5.930   0.355 -15.482  0.00  0.00    -0.289 N 
ATOM     11  C   UNL d   1       5.037  -0.768 -15.271  0.00  0.00     0.134 C 
ATOM     12  C   UNL d   1       6.262   1.257 -14.558  0.00  0.00     0.193 A 
ATOM     13  N   UNL d   1       7.126   2.171 -15.003  0.00  0.00    -0.122 NA
ATOM     14  N   UNL d   1       7.304   1.900 -16.344  0.00  0.00    -0.128 NA
BRANCH  12  15
ATOM     15  S   UNL d   1       5.479   1.211 -12.973  0.00  0.00    -0.075 SA
BRANCH  15  16
ATOM     16  C   UNL d   1       5.382   2.988 -12.632  0.00  0.00     0.067 C 
BRANCH  16  17
ATOM     17  C   UNL d   1       6.669   3.772 -12.256  0.00  0.00     0.047 C 
BRANCH  17  18
ATOM     18  C   UNL d   1       6.492   5.281 -12.554  0.00  0.00     0.251 C 
BRANCH  18  19
ATOM     19  N   UNL d   1       7.703   6.113 -12.428  0.00  0.00     0.143 N 
ATOM     20  C   UNL d   1       8.210   6.061 -11.079  0.00  0.00     0.284 C 
ATOM     21  C   UNL d   1       9.447   6.958 -10.796  0.00  0.00     0.171 C 
ATOM     22  O   UNL d   1       9.222   8.314 -11.156  0.00  0.00    -0.348 OA
ATOM     23  C   UNL d   1       8.702   8.415 -12.450  0.00  0.00     0.178 C 
ATOM     24  C   UNL d   1       7.428   7.527 -12.653  0.00  0.00     0.282 C 
BRANCH  21  25
ATOM     25  C   UNL d   1       9.881   6.921  -9.345  0.00  0.00     0.007 A 
ATOM     26  C   UNL d   1       9.051   6.418  -8.313  0.00  0.00    -0.002 A 
ATOM     27  C   UNL d   1       9.483   6.461  -6.988  0.00  0.00     0.004 A 
ATOM     28  C   UNL d   1      10.761   6.957  -6.662  0.00  0.00     0.071 A 
ATOM     29  C   UNL d   1      11.585   7.483  -7.687  0.00  0.00     0.004 A 
ATOM     30  C   UNL d   1      11.135   7.478  -9.020  0.00  0.00    -0.002 A 
BRANCH  28  31
ATOM     31  C   UNL d   1      11.245   6.898  -5.245  0.00  0.00     0.419 C 
ATOM     32  F   UNL d   1      10.316   6.402  -4.441  0.00  0.00    -0.166 F 
ATOM     33  F   UNL d   1      12.249   6.036  -5.178  0.00  0.00    -0.166 F 
ATOM     34  F   UNL d   1      11.675   8.112  -4.862  0.00  0.00    -0.166 F 
ENDBRANCH  28  31
ENDBRANCH  21  25
ENDBRANCH  18  19
ENDBRANCH  17  18
ENDBRANCH  16  17
ENDBRANCH  15  16
ENDBRANCH  12  15
ENDBRANCH   1   9
TORSDOF 8
