REMARK  3 active torsions:
REMARK  status: ('A' for Active; 'I' for Inactive)
REMARK    1  A    between atoms: C_3  and  C_4 
REMARK    2  A    between atoms: C_4  and  N_5 
REMARK    3  A    between atoms: N_8  and  C_9 
ROOT
ATOM      1  N   UNL d   1       8.968   6.735 -10.931  0.00  0.00     0.149 N 
ATOM      2  C   UNL d   1       8.179   6.797 -12.149  0.00  0.00     0.275 C 
ATOM      3  C   UNL d   1       7.516   5.426 -12.422  0.00  0.00     0.155 C 
ATOM      4  N   UNL d   1       8.541   4.388 -12.454  0.00  0.00    -0.179 N 
ATOM      5  C   UNL d   1       9.401   4.369 -11.279  0.00  0.00     0.155 C 
ATOM      6  C   UNL d   1      10.025   5.753 -11.082  0.00  0.00     0.275 C 
ENDROOT
BRANCH   1   7
ATOM      7  C   UNL d   1       9.484   8.044 -10.553  0.00  0.00     0.314 C 
BRANCH   7   8
ATOM      8  C   UNL d   1      10.013   8.136  -9.141  0.00  0.00     0.154 A 
ATOM      9  N   UNL d   1       9.713   7.263  -8.131  0.00  0.00    -0.312 N 
ATOM     10  C   UNL d   1       8.859   6.074  -8.114  0.00  0.00     0.132 C 
ATOM     11  C   UNL d   1      10.422   7.720  -7.029  0.00  0.00     0.079 A 
ATOM     12  C   UNL d   1      11.098   8.884  -7.469  0.00  0.00     0.099 A 
ATOM     13  C   UNL d   1      10.551   7.255  -5.711  0.00  0.00     0.019 A 
ATOM     14  N   UNL d   1      10.851   9.121  -8.809  0.00  0.00    -0.229 NA
ATOM     15  C   UNL d   1      11.882   9.597  -6.532  0.00  0.00     0.021 A 
ATOM     16  C   UNL d   1      12.005   9.142  -5.201  0.00  0.00     0.002 A 
ATOM     17  C   UNL d   1      11.355   7.961  -4.799  0.00  0.00     0.002 A 
ENDBRANCH   7   8
ENDBRANCH   1   7
BRANCH   4  18
ATOM     18  C   UNL d   1       8.733   3.533 -13.522  0.00  0.00     0.728 A 
ATOM     19  N   UNL d   1       9.990   3.171 -13.796  0.00  0.00    -0.059 NA
ATOM     20  C   UNL d   1      10.176   2.289 -14.793  0.00  0.00     0.131 A 
ATOM     21  C   UNL d   1       9.096   1.773 -15.534  0.00  0.00     0.097 A 
ATOM     22  C   UNL d   1       7.815   2.222 -15.161  0.00  0.00     0.131 A 
ATOM     23 CL   UNL d   1       9.333   0.683 -16.846  0.00  0.00    -0.079 Cl
ATOM     24  N   UNL d   1       7.638   3.105 -14.162  0.00  0.00    -0.059 NA
ENDBRANCH   4  18
TORSDOF 3
