REMARK  7 active torsions:
REMARK  status: ('A' for Active; 'I' for Inactive)
REMARK    1  A    between atoms: O_2  and  C_3 
REMARK    2  A    between atoms: C_8  and  N_9 
REMARK    3  A    between atoms: N_15  and  C_16 
REMARK    4  A    between atoms: C_16  and  C_17 
REMARK    5  A    between atoms: C_17  and  S_18 
REMARK    6  A    between atoms: S_18  and  C_19 
REMARK    7  A    between atoms: C_22  and  C_23 
ROOT
ATOM      1  N   UNL d   1       7.088   0.712 -17.210  0.00  0.00    -0.347 N 
ATOM      2  C   UNL d   1       7.591   1.833 -16.422  0.00  0.00     0.102 C 
ATOM      3  C   UNL d   1       9.076   1.627 -16.137  0.00  0.00     0.024 C 
ATOM      4  C   UNL d   1       9.893   1.405 -17.442  0.00  0.00     0.008 C 
ATOM      5  C   UNL d   1      11.374   1.148 -17.091  0.00  0.00     0.035 C 
ATOM      6  C   UNL d   1      12.032   2.408 -16.498  0.00  0.00     0.250 C 
ATOM      7  N   UNL d   1      11.947   3.534 -17.437  0.00  0.00     0.138 N 
ATOM      8  C   UNL d   1      10.546   3.850 -17.723  0.00  0.00     0.250 C 
ATOM      9  C   UNL d   1       9.857   2.646 -18.364  0.00  0.00     0.035 C 
ATOM     10  C   UNL d   1       9.292   0.184 -18.182  0.00  0.00     0.024 C 
ATOM     11  C   UNL d   1       7.786   0.355 -18.446  0.00  0.00     0.102 C 
ENDROOT
BRANCH   7  12
ATOM     12  C   UNL d   1      12.599   4.696 -16.837  0.00  0.00     0.262 C 
BRANCH  12  13
ATOM     13  C   UNL d   1      12.767   5.846 -17.850  0.00  0.00     0.101 C 
BRANCH  13  14
ATOM     14  S   UNL d   1      13.537   7.294 -17.084  0.00  0.00    -0.073 SA
BRANCH  14  15
ATOM     15  C   UNL d   1      15.200   6.787 -17.297  0.00  0.00     0.193 A 
ATOM     16  N   UNL d   1      15.953   7.193 -18.331  0.00  0.00    -0.289 N 
ATOM     17  C   UNL d   1      17.129   6.580 -18.082  0.00  0.00     0.167 A 
ATOM     18  C   UNL d   1      15.592   8.078 -19.427  0.00  0.00     0.134 C 
ATOM     19  N   UNL d   1      17.112   5.873 -16.943  0.00  0.00    -0.128 NA
ATOM     20  N   UNL d   1      15.839   5.993 -16.442  0.00  0.00    -0.122 NA
BRANCH  17  21
ATOM     21  C   UNL d   1      18.306   6.656 -18.929  0.00  0.00     0.036 A 
ATOM     22  C   UNL d   1      19.506   7.196 -18.423  0.00  0.00     0.003 A 
ATOM     23  C   UNL d   1      20.650   7.266 -19.241  0.00  0.00     0.000 A 
ATOM     24  C   UNL d   1      20.601   6.787 -20.564  0.00  0.00     0.000 A 
ATOM     25  C   UNL d   1      19.407   6.241 -21.071  0.00  0.00     0.000 A 
ATOM     26  C   UNL d   1      18.260   6.179 -20.257  0.00  0.00     0.003 A 
ENDBRANCH  17  21
ENDBRANCH  14  15
ENDBRANCH  13  14
ENDBRANCH  12  13
ENDBRANCH   7  12
BRANCH   1  27
ATOM     27  C   UNL d   1       6.013  -0.049 -16.737  0.00  0.00     0.079 A 
ATOM     28  C   UNL d   1       4.976  -0.474 -17.608  0.00  0.00     0.110 A 
ATOM     29  C   UNL d   1       3.904  -1.233 -17.070  0.00  0.00     0.026 A 
ATOM     30  C   UNL d   1       3.867  -1.539 -15.699  0.00  0.00     0.002 A 
ATOM     31  C   UNL d   1       4.891  -1.117 -14.845  0.00  0.00     0.002 A 
ATOM     32  C   UNL d   1       5.965  -0.379 -15.364  0.00  0.00     0.019 A 
BRANCH  28  33
ATOM     33  O   UNL d   1       5.039  -0.097 -18.936  0.00  0.00    -0.327 OA
ATOM     34  C   UNL d   1       3.991  -0.479 -19.805  0.00  0.00     0.181 C 
ENDBRANCH  28  33
ENDBRANCH   1  27
TORSDOF 7
