REMARK  5 active torsions:
REMARK  status: ('A' for Active; 'I' for Inactive)
REMARK    1  A    between atoms: C_2  and  C_3 
REMARK    2  A    between atoms: N_12  and  C_13 
REMARK    3  A    between atoms: C_13  and  C_14 
REMARK    4  A    between atoms: C_14  and  C_15 
REMARK    5  A    between atoms: C_16  and  C_17 
ROOT
ATOM      1  O   UNL d   1       9.076   4.827 -14.934  0.00  0.00    -0.221 OA
ATOM      2  C   UNL d   1       8.532   3.664 -14.347  0.00  0.00     0.149 C 
ATOM      3  C   UNL d   1       9.520   3.242 -13.259  0.00  0.00     0.070 C 
ATOM      4  C   UNL d   1       9.587   4.240 -12.099  0.00  0.00     0.253 C 
ATOM      5  N   UNL d   1       8.262   4.482 -11.516  0.00  0.00     0.138 N 
ATOM      6  C   UNL d   1       7.361   5.045 -12.523  0.00  0.00     0.253 C 
ATOM      7  C   UNL d   1       7.184   4.048 -13.683  0.00  0.00     0.070 C 
ENDROOT
BRANCH   5   8
ATOM      8  C   UNL d   1       8.392   5.407 -10.393  0.00  0.00     0.264 C 
BRANCH   8   9
ATOM      9  C   UNL d   1       8.920   4.715  -9.119  0.00  0.00     0.112 C 
BRANCH   9  10
ATOM     10  C   UNL d   1       9.435   5.672  -8.128  0.00  0.00    -0.084 C 
ATOM     11  C   UNL d   1       9.907   6.457  -7.319  0.00  0.00    -0.064 C 
BRANCH  11  12
ATOM     12  C   UNL d   1      10.471   7.372  -6.341  0.00  0.00     0.042 A 
ATOM     13  C   UNL d   1      10.283   8.763  -6.484  0.00  0.00     0.011 A 
ATOM     14  C   UNL d   1      10.819   9.644  -5.523  0.00  0.00     0.030 A 
ATOM     15  C   UNL d   1      11.527   9.137  -4.416  0.00  0.00     0.140 A 
ATOM     16  C   UNL d   1      11.732   7.752  -4.283  0.00  0.00     0.030 A 
ATOM     17  F   UNL d   1      11.987   9.977  -3.461  0.00  0.00    -0.204 F 
ATOM     18  C   UNL d   1      11.199   6.870  -5.241  0.00  0.00     0.011 A 
ENDBRANCH  11  12
ENDBRANCH   9  10
ENDBRANCH   8   9
ENDBRANCH   5   8
BRANCH   2  19
ATOM     19  C   UNL d   1       8.359   2.534 -15.373  0.00  0.00     0.005 A 
ATOM     20  C   UNL d   1       7.633   1.367 -15.039  0.00  0.00    -0.001 A 
ATOM     21  C   UNL d   1       7.437   0.349 -15.988  0.00  0.00     0.011 A 
ATOM     22  C   UNL d   1       7.983   0.469 -17.280  0.00  0.00     0.058 A 
ATOM     23  C   UNL d   1       8.721   1.623 -17.620  0.00  0.00     0.011 A 
ATOM     24 CL   UNL d   1       7.766  -0.788 -18.447  0.00  0.00    -0.082 Cl
ATOM     25  C   UNL d   1       8.910   2.642 -16.672  0.00  0.00    -0.001 A 
ENDBRANCH   2  19
TORSDOF 5
