REMARK  7 active torsions:
REMARK  status: ('A' for Active; 'I' for Inactive)
REMARK    1  A    between atoms: C_6  and  C_7 
REMARK    2  A    between atoms: C_10  and  S_11 
REMARK    3  A    between atoms: S_11  and  C_12 
REMARK    4  A    between atoms: C_12  and  C_13 
REMARK    5  A    between atoms: C_13  and  C_14 
REMARK    6  A    between atoms: C_14  and  N_15 
REMARK    7  A    between atoms: N_20  and  C_21 
ROOT
ATOM      1  C   UNL d   1      13.631   5.052 -18.528  0.00  0.00     0.037 A 
ATOM      2  C   UNL d   1      13.592   6.003 -19.574  0.00  0.00     0.011 A 
ATOM      3  C   UNL d   1      14.629   6.942 -19.727  0.00  0.00     0.002 A 
ATOM      4  C   UNL d   1      15.720   6.952 -18.838  0.00  0.00     0.010 A 
ATOM      5  C   UNL d   1      15.762   6.023 -17.779  0.00  0.00     0.069 A 
ATOM      6  C   UNL d   1      16.878   6.013 -16.844  0.00  0.00     0.101 C 
ATOM      7  N   UNL d   1      17.758   6.000 -16.092  0.00  0.00    -0.191 NA
ATOM      8  C   UNL d   1      14.723   5.099 -17.619  0.00  0.00     0.021 A 
ENDROOT
BRANCH   1   9
ATOM      9  N   UNL d   1      12.605   4.093 -18.411  0.00  0.00    -0.252 NA
ATOM     10  C   UNL d   1      12.111   3.468 -19.627  0.00  0.00     0.077 C 
ATOM     11  C   UNL d   1      11.189   2.350 -19.140  0.00  0.00     0.021 C 
ATOM     12  C   UNL d   1      11.846   1.885 -17.835  0.00  0.00     0.052 C 
ATOM     13  C   UNL d   1      10.911   1.661 -16.643  0.00  0.00     0.252 C 
ATOM     14  C   UNL d   1      12.728   3.044 -17.407  0.00  0.00     0.097 C 
ATOM     15  N   UNL d   1      10.856   2.959 -15.980  0.00  0.00     0.138 N 
ATOM     16  C   UNL d   1      12.220   3.476 -16.026  0.00  0.00     0.266 C 
BRANCH  15  17
ATOM     17  C   UNL d   1      10.326   2.866 -14.626  0.00  0.00     0.251 C 
BRANCH  17  18
ATOM     18  C   UNL d   1       9.918   4.254 -14.101  0.00  0.00     0.047 C 
BRANCH  18  19
ATOM     19  C   UNL d   1       9.234   4.168 -12.734  0.00  0.00     0.067 C 
BRANCH  19  20
ATOM     20  S   UNL d   1       7.928   5.424 -12.554  0.00  0.00    -0.075 SA
BRANCH  20  21
ATOM     21  C   UNL d   1       8.845   6.599 -11.610  0.00  0.00     0.193 A 
ATOM     22  N   UNL d   1       9.158   7.819 -12.054  0.00  0.00    -0.122 NA
ATOM     23  N   UNL d   1       9.836   8.403 -11.007  0.00  0.00    -0.126 NA
ATOM     24  C   UNL d   1       9.857   7.519 -10.010  0.00  0.00     0.191 A 
ATOM     25  N   UNL d   1       9.239   6.350 -10.346  0.00  0.00    -0.287 N 
ATOM     26  C   UNL d   1       8.986   5.170  -9.534  0.00  0.00     0.134 C 
BRANCH  24  27
ATOM     27  C   UNL d   1      10.470   7.840  -8.721  0.00  0.00     0.151 A 
ATOM     28  C   UNL d   1      10.171   7.555  -7.399  0.00  0.00     0.087 A 
ATOM     29  C   UNL d   1       9.062   6.766  -6.786  0.00  0.00     0.054 C 
ATOM     30  N   UNL d   1      11.137   8.145  -6.594  0.00  0.00    -0.221 NA
ATOM     31  C   UNL d   1      11.956   8.759  -7.444  0.00  0.00     0.225 A 
ATOM     32  O   UNL d   1      11.619   8.597  -8.746  0.00  0.00    -0.282 OA
ENDBRANCH  24  27
ENDBRANCH  20  21
ENDBRANCH  19  20
ENDBRANCH  18  19
ENDBRANCH  17  18
ENDBRANCH  15  17
ENDBRANCH   1   9
TORSDOF 7
