REMARK  10 active torsions:
REMARK  status: ('A' for Active; 'I' for Inactive)
REMARK    1  A    between atoms: O_2  and  C_3 
REMARK    2  A    between atoms: C_8  and  N_9 
REMARK    3  A    between atoms: N_9  and  C_10 
REMARK    4  A    between atoms: C_10  and  C_11 
REMARK    5  A    between atoms: C_11  and  N_12 
REMARK    6  A    between atoms: N_12  and  C_13 
REMARK    7  A    between atoms: C_18  and  N_19 
REMARK    8  A    between atoms: N_19  and  C_20 
REMARK    9  A    between atoms: C_20  and  C_21 
REMARK   10  A    between atoms: C_21  and  C_22 
ROOT
ATOM      1  C   UNL d   1       6.226   3.341 -12.950  0.00  0.00     0.776 A 
ATOM      2  N   UNL d   1       5.333   2.357 -12.824  0.00  0.00     0.136 NA
ATOM      3  C   UNL d   1       5.596   1.326 -13.627  0.00  0.00     0.799 A 
ATOM      4  N   UNL d   1       4.696   0.290 -13.600  0.00  0.00     0.063 N 
ATOM      5  N   UNL d   1       6.609   1.188 -14.480  0.00  0.00     0.136 NA
ATOM      6  C   UNL d   1       7.410   2.252 -14.476  0.00  0.00     0.776 A 
ATOM      7  N   UNL d   1       7.280   3.371 -13.770  0.00  0.00     0.134 NA
ENDROOT
BRANCH   1   8
ATOM      8  N   UNL d   1       6.047   4.431 -12.121  0.00  0.00    -0.083 NA
BRANCH   8   9
ATOM      9  C   UNL d   1       7.065   5.452 -11.879  0.00  0.00     0.171 C 
BRANCH   9  10
ATOM     10  C   UNL d   1       8.334   4.891 -11.191  0.00  0.00     0.153 C 
BRANCH  10  11
ATOM     11  N   UNL d   1       9.286   5.931 -10.809  0.00  0.00    -0.267 NA
BRANCH  11  12
ATOM     12  C   UNL d   1       9.390   6.450  -9.509  0.00  0.00     0.098 A 
ATOM     13  C   UNL d   1      10.229   7.578  -9.290  0.00  0.00     0.111 A 
ATOM     14  C   UNL d   1      10.376   8.113  -7.983  0.00  0.00     0.026 A 
ATOM     15  C   UNL d   1       9.675   7.548  -6.905  0.00  0.00     0.002 A 
ATOM     16  C   UNL d   1       8.820   6.455  -7.133  0.00  0.00     0.002 A 
ATOM     17  C   UNL d   1       8.685   5.904  -8.416  0.00  0.00     0.021 A 
BRANCH  13  18
ATOM     18  O   UNL d   1      10.853   8.130 -10.389  0.00  0.00    -0.327 OA
ATOM     19  C   UNL d   1      11.839   9.127 -10.170  0.00  0.00     0.181 C 
ENDBRANCH  13  18
ENDBRANCH  11  12
ENDBRANCH  10  11
ENDBRANCH   9  10
ENDBRANCH   8   9
ENDBRANCH   1   8
BRANCH   6  20
ATOM     20  N   UNL d   1       8.473   2.164 -15.343  0.00  0.00    -0.085 NA
BRANCH  20  21
ATOM     21  C   UNL d   1       9.675   2.990 -15.301  0.00  0.00     0.150 C 
BRANCH  21  22
ATOM     22  C   UNL d   1      10.975   2.159 -15.345  0.00  0.00     0.055 C 
BRANCH  22  23
ATOM     23  C   UNL d   1      11.024   1.150 -16.460  0.00  0.00     0.000 A 
ATOM     24  C   UNL d   1      11.825   1.204 -17.659  0.00  0.00     0.015 A 
ATOM     25  C   UNL d   1      11.556   0.029 -18.422  0.00  0.00     0.081 A 
ATOM     26  C   UNL d   1      12.760   2.120 -18.198  0.00  0.00     0.001 A 
ATOM     27  N   UNL d   1      10.630  -0.687 -17.692  0.00  0.00    -0.244 NA
ATOM     28  C   UNL d   1      12.180  -0.221 -19.656  0.00  0.00     0.019 A 
ATOM     29  C   UNL d   1      10.322  -0.030 -16.515  0.00  0.00     0.095 A 
ATOM     30  C   UNL d   1      13.103   0.708 -20.166  0.00  0.00     0.002 A 
ATOM     31  C   UNL d   1      13.395   1.875 -19.435  0.00  0.00     0.000 A 
ENDBRANCH  22  23
ENDBRANCH  21  22
ENDBRANCH  20  21
ENDBRANCH   6  20
TORSDOF 10
