REMARK  11 active torsions:
REMARK  status: ('A' for Active; 'I' for Inactive)
REMARK    1  A    between atoms: O_2  and  C_3 
REMARK    2  A    between atoms: C_7  and  C_8 
REMARK    3  A    between atoms: C_8  and  N_9 
REMARK    4  A    between atoms: N_9  and  C_10 
REMARK    5  A    between atoms: C_10  and  C_11 
REMARK    6  A    between atoms: C_15  and  C_16 
REMARK    7  A    between atoms: C_16  and  C_17 
REMARK    8  A    between atoms: C_17  and  N_18 
REMARK    9  A    between atoms: N_18  and  C_19 
REMARK   10  A    between atoms: C_19  and  C_20 
REMARK   11  A    between atoms: C_20  and  C_22 
ROOT
ATOM      1  C   UNL d   1       9.797   6.809  -9.992  0.00  0.00     0.013 A 
ATOM      2  C   UNL d   1       9.616   5.667  -9.196  0.00  0.00    -0.002 A 
ATOM      3  C   UNL d   1       8.949   4.558  -9.739  0.00  0.00    -0.001 A 
ATOM      4  C   UNL d   1       8.477   4.599 -11.066  0.00  0.00    -0.004 A 
ATOM      5  C   UNL d   1       8.675   5.739 -11.872  0.00  0.00    -0.020 A 
ATOM      6  C   UNL d   1       9.332   6.854 -11.320  0.00  0.00    -0.006 A 
ENDROOT
BRANCH   5   7
ATOM      7  C   UNL d   1       8.168   5.751 -13.302  0.00  0.00     0.065 C 
BRANCH   7   8
ATOM      8  C   UNL d   1       9.053   4.943 -14.273  0.00  0.00     0.295 C 
BRANCH   8   9
ATOM      9  N   UNL d   1       8.831   3.503 -14.138  0.00  0.00     0.343 N 
BRANCH   9  10
ATOM     10  C   UNL d   1       9.861   2.682 -14.771  0.00  0.00     0.327 C 
BRANCH  10  11
ATOM     11  C   UNL d   1       9.467   1.191 -14.756  0.00  0.00     0.211 C 
ATOM     12  O   UNL d   1      10.613   0.411 -14.989  0.00  0.00    -0.216 OA
BRANCH  11  13
ATOM     13  C   UNL d   1       8.381   0.857 -15.766  0.00  0.00     0.018 A 
ATOM     14  C   UNL d   1       7.080   0.451 -15.397  0.00  0.00     0.052 A 
ATOM     15  C   UNL d   1       6.114   0.117 -16.344  0.00  0.00     0.116 A 
ATOM     16  S   UNL d   1       6.459   0.283 -13.773  0.00  0.00    -0.024 SA
ATOM     17  C   UNL d   1       6.396   0.193 -17.723  0.00  0.00     0.149 A 
ATOM     18  N   UNL d   1       4.890  -0.271 -15.761  0.00  0.00    -0.200 NA
ATOM     19  C   UNL d   1       7.693   0.583 -18.120  0.00  0.00     0.029 A 
ATOM     20  O   UNL d   1       5.458  -0.092 -18.675  0.00  0.00    -0.189 OA
ATOM     21  C   UNL d   1       8.679   0.905 -17.156  0.00  0.00     0.001 A 
ATOM     22  C   UNL d   1       4.837  -0.212 -14.376  0.00  0.00     0.311 A 
ATOM     23  O   UNL d   1       3.879  -0.414 -13.639  0.00  0.00    -0.258 OA
ENDBRANCH  11  13
ENDBRANCH  10  11
ENDBRANCH   9  10
ENDBRANCH   8   9
ENDBRANCH   7   8
ENDBRANCH   5   7
BRANCH   1  24
ATOM     24  C   UNL d   1      10.455   8.009  -9.384  0.00  0.00     0.317 C 
BRANCH  24  25
ATOM     25  N   UNL d   1       9.804   8.379  -8.147  0.00  0.00     0.349 N 
BRANCH  25  26
ATOM     26  C   UNL d   1      10.546   9.465  -7.529  0.00  0.00     0.317 C 
BRANCH  26  27
ATOM     27  C   UNL d   1      11.251   9.076  -6.250  0.00  0.00     0.015 A 
ATOM     28  C   UNL d   1      12.297   9.895  -5.827  0.00  0.00    -0.002 A 
ATOM     29  C   UNL d   1      13.023   9.586  -4.665  0.00  0.00     0.002 A 
ATOM     30  C   UNL d   1      12.631   8.496  -3.873  0.00  0.00     0.024 A 
ATOM     31  C   UNL d   1      11.556   7.659  -4.287  0.00  0.00     0.094 A 
ATOM     32  C   UNL d   1      10.850   7.959  -5.476  0.00  0.00     0.022 A 
BRANCH  31  33
ATOM     33  O   UNL d   1      11.191   6.532  -3.569  0.00  0.00    -0.328 OA
ATOM     34  C   UNL d   1      11.535   6.565  -2.196  0.00  0.00     0.181 C 
ENDBRANCH  31  33
ENDBRANCH  26  27
ENDBRANCH  25  26
ENDBRANCH  24  25
ENDBRANCH   1  24
TORSDOF 11
