REMARK  4 active torsions:
REMARK  status: ('A' for Active; 'I' for Inactive)
REMARK       I    between atoms: C_2  and  N_4 
REMARK    1  A    between atoms: N_4  and  C_5 
REMARK    2  A    between atoms: C_8  and  C_9 
REMARK    3  A    between atoms: C_9  and  C_10 
REMARK    4  A    between atoms: C_10  and  N_11 
ROOT
ATOM      1  N   UNL d   1       8.264   4.954 -11.529  0.00  0.00     0.142 N 
ATOM      2  C   UNL d   1       7.121   5.500 -12.263  0.00  0.00     0.255 C 
ATOM      3  C   UNL d   1       6.433   4.349 -13.012  0.00  0.00     0.061 C 
ATOM      4  C   UNL d   1       7.422   3.489 -13.774  0.00  0.00    -0.022 A 
ATOM      5  C   UNL d   1       6.963   2.546 -14.695  0.00  0.00    -0.004 A 
ATOM      6  C   UNL d   1       7.875   1.758 -15.422  0.00  0.00     0.010 A 
ATOM      7  C   UNL d   1       9.260   1.869 -15.161  0.00  0.00     0.068 A 
ATOM      8  C   UNL d   1      10.218   1.049 -15.906  0.00  0.00     0.101 C 
ATOM      9  N   UNL d   1      10.979   0.403 -16.494  0.00  0.00    -0.191 NA
ATOM     10  C   UNL d   1       9.720   2.771 -14.191  0.00  0.00     0.008 A 
ATOM     11  C   UNL d   1       8.798   3.594 -13.508  0.00  0.00     0.008 A 
ATOM     12  C   UNL d   1       9.302   4.568 -12.470  0.00  0.00     0.276 C 
ENDROOT
BRANCH   1  13
ATOM     13  C   UNL d   1       8.767   5.974 -10.634  0.00  0.00     0.251 C 
BRANCH  13  14
ATOM     14  C   UNL d   1       9.542   5.421  -9.441  0.00  0.00     0.035 C 
BRANCH  14  15
ATOM     15  C   UNL d   1      10.179   6.540  -8.566  0.00  0.00     0.002 C 
ATOM     16  C   UNL d   1       9.119   7.530  -8.029  0.00  0.00     0.002 C 
ATOM     17  C   UNL d   1       9.696   8.543  -7.036  0.00  0.00     0.024 C 
ATOM     18  C   UNL d   1      10.426   7.882  -5.853  0.00  0.00     0.106 C 
ATOM     19  C   UNL d   1      11.455   6.897  -6.383  0.00  0.00     0.024 C 
ATOM     20  C   UNL d   1      10.797   5.929  -7.315  0.00  0.00     0.002 C 
BRANCH  18  21
ATOM     21  N   UNL d   1      11.055   8.893  -5.003  0.00  0.00    -0.240 NA
ATOM     22  C   UNL d   1      11.617   8.647  -3.806  0.00  0.00     0.252 C 
ATOM     23  C   UNL d   1      11.863   9.843  -2.904  0.00  0.00     0.100 C 
ATOM     24  O   UNL d   1      11.852   7.518  -3.372  0.00  0.00    -0.271 OA
ENDBRANCH  18  21
ENDBRANCH  14  15
ENDBRANCH  13  14
ENDBRANCH   1  13
TORSDOF 4
