REMARK  6 active torsions:
REMARK  status: ('A' for Active; 'I' for Inactive)
REMARK    1  A    between atoms: C_7  and  O_8 
REMARK    2  A    between atoms: O_8  and  C_9 
REMARK    3  A    between atoms: C_9  and  C_10 
REMARK    4  A    between atoms: C_10  and  C_11 
REMARK    5  A    between atoms: C_11  and  N_12 
REMARK    6  A    between atoms: N_15  and  C_16 
ROOT
ATOM      1  C   UNL d   1       9.157   6.603 -10.105  0.00  0.00     0.068 C 
ENDROOT
BRANCH   1   2
ATOM      2  C   UNL d   1       9.391   6.897  -8.626  0.00  0.00     0.151 C 
BRANCH   2   3
ATOM      3  O   UNL d   1      10.404   7.887  -8.513  0.00  0.00    -0.331 OA
BRANCH   3   4
ATOM      4  C   UNL d   1      10.884   8.138  -7.244  0.00  0.00     0.094 A 
ATOM      5  C   UNL d   1      11.013   7.134  -6.257  0.00  0.00     0.021 A 
ATOM      6  C   UNL d   1      11.466   7.472  -4.977  0.00  0.00    -0.002 A 
ATOM      7  C   UNL d   1      11.671   6.394  -3.939  0.00  0.00     0.038 C 
ATOM      8  C   UNL d   1      11.829   8.795  -4.648  0.00  0.00     0.081 A 
ATOM      9  C   UNL d   1      11.611   6.864  -2.460  0.00  0.00     0.095 C 
ATOM     10  C   UNL d   1      12.283   8.230  -2.323  0.00  0.00     0.256 C 
ATOM     11  O   UNL d   1      12.785   8.535  -1.248  0.00  0.00    -0.270 OA
ATOM     12  N   UNL d   1      12.315   9.098  -3.354  0.00  0.00    -0.212 NA
ATOM     13  C   UNL d   1      11.761   9.782  -5.641  0.00  0.00     0.021 A 
ATOM     14  C   UNL d   1      11.297   9.457  -6.935  0.00  0.00     0.026 A 
ENDBRANCH   3   4
ENDBRANCH   2   3
ENDBRANCH   1   2
BRANCH   1  15
ATOM     15  C   UNL d   1       8.042   5.557 -10.263  0.00  0.00     0.253 C 
BRANCH  15  16
ATOM     16  N   UNL d   1       7.742   5.257 -11.659  0.00  0.00     0.141 N 
ATOM     17  C   UNL d   1       6.540   4.410 -11.731  0.00  0.00     0.274 C 
ATOM     18  C   UNL d   1       6.173   4.136 -13.199  0.00  0.00     0.138 C 
ATOM     19  N   UNL d   1       7.314   3.578 -13.917  0.00  0.00    -0.330 N 
ATOM     20  C   UNL d   1       8.556   4.320 -13.774  0.00  0.00     0.138 C 
ATOM     21  C   UNL d   1       8.861   4.552 -12.292  0.00  0.00     0.274 C 
BRANCH  19  22
ATOM     22  C   UNL d   1       7.248   2.366 -14.642  0.00  0.00     0.140 A 
ATOM     23  N   UNL d   1       6.263   1.501 -14.305  0.00  0.00    -0.227 NA
ATOM     24  C   UNL d   1       6.149   0.359 -15.013  0.00  0.00     0.101 A 
ATOM     25  C   UNL d   1       7.000   0.015 -16.080  0.00  0.00     0.021 A 
ATOM     26  C   UNL d   1       8.030   0.907 -16.425  0.00  0.00     0.005 A 
ATOM     27  C   UNL d   1       8.155   2.105 -15.698  0.00  0.00     0.037 A 
ENDBRANCH  19  22
ENDBRANCH  15  16
ENDBRANCH   1  15
TORSDOF 6
