REMARK  8 active torsions:
REMARK  status: ('A' for Active; 'I' for Inactive)
REMARK    1  A    between atoms: C_3  and  S_4 
REMARK    2  A    between atoms: S_4  and  C_5 
REMARK    3  A    between atoms: C_5  and  C_6 
REMARK    4  A    between atoms: C_6  and  C_7 
REMARK    5  A    between atoms: C_7  and  N_8 
REMARK    6  A    between atoms: N_13  and  C_14 
REMARK    7  A    between atoms: C_19  and  C_20 
REMARK    8  A    between atoms: C_28  and  C_29 
ROOT
ATOM      1  N   UNL d   1       5.433  -0.352 -16.805  0.00  0.00     0.138 N 
ATOM      2  C   UNL d   1       4.537  -1.455 -16.460  0.00  0.00     0.252 C 
ATOM      3  C   UNL d   1       4.506  -2.310 -17.732  0.00  0.00     0.052 C 
ATOM      4  C   UNL d   1       3.446  -1.905 -18.759  0.00  0.00     0.021 C 
ATOM      5  C   UNL d   1       4.202  -1.990 -20.082  0.00  0.00     0.077 C 
ATOM      6  N   UNL d   1       5.538  -1.547 -19.759  0.00  0.00    -0.252 NA
ATOM      7  C   UNL d   1       5.837  -2.037 -18.421  0.00  0.00     0.097 C 
ATOM      8  C   UNL d   1       6.508  -0.971 -17.572  0.00  0.00     0.266 C 
ENDROOT
BRANCH   1   9
ATOM      9  C   UNL d   1       5.904   0.329 -15.602  0.00  0.00     0.251 C 
BRANCH   9  10
ATOM     10  C   UNL d   1       7.016   1.347 -15.909  0.00  0.00     0.047 C 
BRANCH  10  11
ATOM     11  C   UNL d   1       7.660   1.909 -14.649  0.00  0.00     0.067 C 
BRANCH  11  12
ATOM     12  S   UNL d   1       6.712   3.292 -13.955  0.00  0.00    -0.075 SA
BRANCH  12  13
ATOM     13  C   UNL d   1       8.014   4.185 -13.171  0.00  0.00     0.193 A 
ATOM     14  N   UNL d   1       7.794   5.125 -12.233  0.00  0.00    -0.289 N 
ATOM     15  C   UNL d   1       6.541   5.632 -11.701  0.00  0.00     0.134 C 
ATOM     16  C   UNL d   1       9.048   5.500 -11.913  0.00  0.00     0.168 A 
ATOM     17  N   UNL d   1       9.981   4.882 -12.641  0.00  0.00    -0.128 NA
ATOM     18  N   UNL d   1       9.308   4.013 -13.450  0.00  0.00    -0.122 NA
BRANCH  16  19
ATOM     19  C   UNL d   1       9.398   6.469 -10.894  0.00  0.00     0.055 A 
ATOM     20  C   UNL d   1       9.496   7.834 -11.226  0.00  0.00     0.102 A 
ATOM     21  N   UNL d   1       9.875   8.783 -10.338  0.00  0.00    -0.242 NA
ATOM     22  C   UNL d   1      10.116   8.399  -9.069  0.00  0.00     0.099 A 
ATOM     23  C   UNL d   1      10.036   7.062  -8.634  0.00  0.00     0.021 A 
ATOM     24  C   UNL d   1       9.653   6.075  -9.565  0.00  0.00     0.006 A 
ENDBRANCH  16  19
ENDBRANCH  12  13
ENDBRANCH  11  12
ENDBRANCH  10  11
ENDBRANCH   9  10
ENDBRANCH   1   9
BRANCH   6  25
ATOM     25  C   UNL d   1       6.480  -1.750 -20.775  0.00  0.00     0.040 A 
ATOM     26  C   UNL d   1       6.944  -0.662 -21.567  0.00  0.00     0.082 A 
ATOM     27  C   UNL d   1       7.888  -0.916 -22.591  0.00  0.00     0.005 A 
ATOM     28  C   UNL d   1       8.357  -2.220 -22.838  0.00  0.00     0.000 A 
ATOM     29  C   UNL d   1       7.883  -3.294 -22.065  0.00  0.00     0.001 A 
ATOM     30  C   UNL d   1       6.950  -3.058 -21.042  0.00  0.00     0.011 A 
BRANCH  26  31
ATOM     31  C   UNL d   1       6.448   0.771 -21.335  0.00  0.00     0.420 C 
ATOM     32  F   UNL d   1       6.994   1.622 -22.207  0.00  0.00    -0.166 F 
ATOM     33  F   UNL d   1       5.125   0.848 -21.475  0.00  0.00    -0.166 F 
ATOM     34  F   UNL d   1       6.774   1.191 -20.113  0.00  0.00    -0.166 F 
ENDBRANCH  26  31
ENDBRANCH   6  25
TORSDOF 8
