REMARK  8 active torsions:
REMARK  status: ('A' for Active; 'I' for Inactive)
REMARK    1  A    between atoms: O_2  and  C_3 
REMARK    2  A    between atoms: C_8  and  C_9 
REMARK    3  A    between atoms: C_11  and  C_12 
REMARK    4  A    between atoms: C_12  and  N_13 
REMARK    5  A    between atoms: N_13  and  C_14 
REMARK    6  A    between atoms: C_14  and  C_15 
REMARK    7  A    between atoms: C_15  and  C_16 
REMARK    8  A    between atoms: C_19  and  N_20 
REMARK       I    between atoms: N_20  and  C_21 
REMARK       I    between atoms: C_21  and  N_23 
ROOT
ATOM      1  C   UNL d   1       9.312   5.476 -10.904  0.00  0.00     0.290 C 
ENDROOT
BRANCH   1   2
ATOM      2  N   UNL d   1       9.412   5.340 -12.343  0.00  0.00     0.339 N 
BRANCH   2   3
ATOM      3  C   UNL d   1       9.235   3.946 -12.705  0.00  0.00     0.290 C 
BRANCH   3   4
ATOM      4  C   UNL d   1       9.502   3.759 -14.197  0.00  0.00     0.041 A 
ATOM      5  C   UNL d   1       8.695   2.801 -15.060  0.00  0.00     0.026 A 
ATOM      6  C   UNL d   1      10.116   2.462 -14.678  0.00  0.00     0.007 A 
BRANCH   5   7
ATOM      7  C   UNL d   1       7.543   2.021 -14.487  0.00  0.00    -0.000 A 
ATOM      8  C   UNL d   1       6.465   2.704 -13.880  0.00  0.00     0.090 A 
ATOM      9  C   UNL d   1       5.460   1.940 -13.243  0.00  0.00     0.024 A 
ATOM     10  C   UNL d   1       5.470   0.537 -13.283  0.00  0.00     0.002 A 
ATOM     11  C   UNL d   1       6.521  -0.129 -13.937  0.00  0.00    -0.000 A 
ATOM     12  C   UNL d   1       7.560   0.613 -14.530  0.00  0.00    -0.002 A 
BRANCH   8  13
ATOM     13  O   UNL d   1       6.475   4.078 -13.908  0.00  0.00    -0.328 OA
ATOM     14  C   UNL d   1       5.466   4.776 -13.190  0.00  0.00     0.181 C 
ENDBRANCH   8  13
ENDBRANCH   5   7
ENDBRANCH   3   4
ENDBRANCH   2   3
ENDBRANCH   1   2
BRANCH   1  15
ATOM     15  C   UNL d   1       9.813   6.871 -10.521  0.00  0.00     0.038 C 
BRANCH  15  16
ATOM     16  C   UNL d   1      10.250   6.995  -9.055  0.00  0.00     0.002 C 
ATOM     17  C   UNL d   1       9.064   7.424  -8.179  0.00  0.00     0.002 C 
ATOM     18  C   UNL d   1       9.469   7.602  -6.720  0.00  0.00     0.025 C 
ATOM     19  C   UNL d   1      10.667   8.563  -6.588  0.00  0.00     0.108 C 
ATOM     20  C   UNL d   1      11.847   8.157  -7.488  0.00  0.00     0.025 C 
ATOM     21  C   UNL d   1      11.417   7.987  -8.940  0.00  0.00     0.002 C 
BRANCH  19  22
ATOM     22  N   UNL d   1      11.104   8.678  -5.202  0.00  0.00    -0.221 NA
ATOM     23  C   UNL d   1      11.572   7.704  -4.407  0.00  0.00     0.342 C 
ATOM     24  O   UNL d   1      11.698   6.535  -4.754  0.00  0.00    -0.245 OA
ATOM     25  N   UNL d   1      11.867   8.123  -3.148  0.00  0.00    -0.297 N 
ATOM     26  C   UNL d   1      12.268   7.145  -2.137  0.00  0.00     0.130 C 
ATOM     27  C   UNL d   1      11.903   9.535  -2.752  0.00  0.00     0.130 C 
ENDBRANCH  19  22
ENDBRANCH  15  16
ENDBRANCH   1  15
TORSDOF 8
