REMARK  5 active torsions:
REMARK  status: ('A' for Active; 'I' for Inactive)
REMARK    1  A    between atoms: C_2  and  O_3 
REMARK    2  A    between atoms: O_3  and  C_4 
REMARK    3  A    between atoms: C_4  and  C_6 
REMARK    4  A    between atoms: C_6  and  C_7 
REMARK    5  A    between atoms: C_6  and  C_9 
ROOT
ATOM      1  C   UNL d   1      11.359   8.505  -6.475  0.00  0.00     0.120 C 
ENDROOT
BRANCH   1   2
ATOM      2  C   UNL d   1      11.355   8.758  -4.969  0.00  0.00     0.276 C 
ATOM      3  O   UNL d   1      10.899   9.787  -4.456  0.00  0.00    -0.264 OA
BRANCH   2   4
ATOM      4  O   UNL d   1      11.886   7.742  -4.292  0.00  0.00    -0.301 OA
BRANCH   4   5
ATOM      5  C   UNL d   1      12.016   7.830  -2.893  0.00  0.00     0.152 C 
ATOM      6  C   UNL d   1      12.503   6.482  -2.373  0.00  0.00     0.035 C 
ENDBRANCH   4   5
ENDBRANCH   2   4
ENDBRANCH   1   2
BRANCH   1   7
ATOM      7  C   UNL d   1      11.126   9.797  -7.221  0.00  0.00     0.082 C 
ATOM      8 BR   UNL d   1      11.050   9.492  -9.214  0.00  0.00    -0.080 Br
ENDBRANCH   1   7
BRANCH   1   9
ATOM      9  C   UNL d   1      10.380   7.469  -6.963  0.00  0.00    -0.012 A 
ATOM     10  C   UNL d   1      10.754   6.654  -8.031  0.00  0.00    -0.004 A 
ATOM     11  C   UNL d   1       9.881   5.674  -8.555  0.00  0.00    -0.000 A 
ATOM     12  C   UNL d   1       8.602   5.572  -7.999  0.00  0.00    -0.000 A 
ATOM     13  C   UNL d   1       8.251   6.394  -6.914  0.00  0.00    -0.000 A 
ATOM     14  C   UNL d   1       9.092   7.392  -6.439  0.00  0.00    -0.004 A 
ENDBRANCH   1   9
TORSDOF 5
