REMARK  6 active torsions:
REMARK  status: ('A' for Active; 'I' for Inactive)
REMARK    1  A    between atoms: O_2  and  C_3 
REMARK    2  A    between atoms: C_7  and  C_8 
REMARK       I    between atoms: C_8  and  N_10 
REMARK    3  A    between atoms: N_10  and  C_11 
REMARK    4  A    between atoms: C_11  and  C_12 
REMARK    5  A    between atoms: C_12  and  N_13 
REMARK    6  A    between atoms: N_16  and  C_17 
ROOT
ATOM      1  N   UNL d   1       8.928   5.179 -11.566  0.00  0.00     0.143 N 
ATOM      2  C   UNL d   1       9.612   4.114 -12.314  0.00  0.00     0.274 C 
ATOM      3  C   UNL d   1       8.946   3.879 -13.692  0.00  0.00     0.138 C 
ATOM      4  N   UNL d   1       7.519   3.615 -13.534  0.00  0.00    -0.330 N 
ATOM      5  C   UNL d   1       6.806   4.584 -12.705  0.00  0.00     0.138 C 
ATOM      6  C   UNL d   1       7.522   4.789 -11.361  0.00  0.00     0.274 C 
ENDROOT
BRANCH   1   7
ATOM      7  C   UNL d   1       9.608   5.396 -10.289  0.00  0.00     0.277 C 
BRANCH   7   8
ATOM      8  C   UNL d   1       9.071   6.597  -9.521  0.00  0.00     0.164 C 
BRANCH   8   9
ATOM      9  N   UNL d   1       9.854   6.863  -8.319  0.00  0.00    -0.232 NA
ATOM     10  C   UNL d   1      10.594   7.959  -8.114  0.00  0.00     0.275 C 
ATOM     11  O   UNL d   1      10.873   8.781  -8.990  0.00  0.00    -0.266 OA
BRANCH  10  12
ATOM     12  C   UNL d   1      10.966   8.221  -6.687  0.00  0.00     0.059 A 
ATOM     13  C   UNL d   1      11.047   9.560  -6.248  0.00  0.00     0.005 A 
ATOM     14  C   UNL d   1      11.382   9.841  -4.921  0.00  0.00     0.002 A 
ATOM     15  C   UNL d   1      11.671   8.812  -4.018  0.00  0.00     0.024 A 
ATOM     16  C   UNL d   1      11.601   7.458  -4.435  0.00  0.00     0.094 A 
ATOM     17  C   UNL d   1      11.245   7.171  -5.765  0.00  0.00     0.029 A 
BRANCH  16  18
ATOM     18  O   UNL d   1      11.867   6.399  -3.599  0.00  0.00    -0.328 OA
ATOM     19  C   UNL d   1      12.174   6.683  -2.236  0.00  0.00     0.181 C 
ENDBRANCH  16  18
ENDBRANCH  10  12
ENDBRANCH   8   9
ENDBRANCH   7   8
ENDBRANCH   1   7
BRANCH   4  20
ATOM     20  C   UNL d   1       6.912   2.458 -14.042  0.00  0.00     0.140 A 
ATOM     21  N   UNL d   1       7.358   1.980 -15.224  0.00  0.00    -0.226 NA
ATOM     22  C   UNL d   1       6.769   0.886 -15.751  0.00  0.00     0.112 A 
ATOM     23  C   UNL d   1       5.709   0.203 -15.125  0.00  0.00     0.077 A 
ATOM     24  C   UNL d   1       5.257   0.680 -13.887  0.00  0.00     0.016 A 
ATOM     25 CL   UNL d   1       4.950  -1.159 -15.864  0.00  0.00    -0.081 Cl
ATOM     26  C   UNL d   1       5.859   1.821 -13.334  0.00  0.00     0.038 A 
ENDBRANCH   4  20
TORSDOF 6
