REMARK  5 active torsions:
REMARK  status: ('A' for Active; 'I' for Inactive)
REMARK    1  A    between atoms: C_8  and  O_9 
REMARK    2  A    between atoms: O_9  and  C_10 
REMARK    3  A    between atoms: C_13  and  C_14 
REMARK    4  A    between atoms: C_14  and  N_15 
REMARK    5  A    between atoms: N_18  and  C_19 
ROOT
ATOM      1  C   UNL d   1       7.997   4.166 -12.376  0.00  0.00     0.100 A 
ATOM      2  C   UNL d   1       9.367   3.966 -12.672  0.00  0.00     0.024 A 
ATOM      3  C   UNL d   1       9.745   3.335 -13.868  0.00  0.00    -0.000 A 
ATOM      4  C   UNL d   1       8.758   2.865 -14.756  0.00  0.00     0.011 A 
ATOM      5  C   UNL d   1       7.396   3.046 -14.435  0.00  0.00    -0.000 A 
ATOM      6  C   UNL d   1       7.011   3.686 -13.260  0.00  0.00     0.024 A 
ENDROOT
BRANCH   4   7
ATOM      7  C   UNL d   1       9.202   2.150 -16.018  0.00  0.00     0.277 C 
BRANCH   7   8
ATOM      8  N   UNL d   1       8.137   1.536 -16.802  0.00  0.00     0.145 N 
ATOM      9  C   UNL d   1       8.715   0.953 -18.018  0.00  0.00     0.275 C 
ATOM     10  C   UNL d   1       7.609   0.377 -18.918  0.00  0.00     0.137 C 
ATOM     11  N   UNL d   1       6.767  -0.531 -18.158  0.00  0.00    -0.344 N 
ATOM     12  C   UNL d   1       6.284  -0.051 -16.878  0.00  0.00     0.137 C 
ATOM     13  C   UNL d   1       7.452   0.482 -16.040  0.00  0.00     0.275 C 
BRANCH  11  14
ATOM     14  C   UNL d   1       6.482  -1.843 -18.583  0.00  0.00     0.068 A 
ATOM     15  C   UNL d   1       5.146  -2.277 -18.722  0.00  0.00     0.084 A 
ATOM     16  C   UNL d   1       4.875  -3.602 -19.136  0.00  0.00     0.070 A 
ATOM     17 CL   UNL d   1       3.821  -1.199 -18.449  0.00  0.00    -0.080 Cl
ATOM     18  C   UNL d   1       5.934  -4.484 -19.407  0.00  0.00     0.012 A 
ATOM     19 CL   UNL d   1       3.247  -4.141 -19.359  0.00  0.00    -0.081 Cl
ATOM     20  C   UNL d   1       7.264  -4.054 -19.262  0.00  0.00     0.002 A 
ATOM     21  C   UNL d   1       7.539  -2.729 -18.852  0.00  0.00     0.018 A 
ENDBRANCH  11  14
ENDBRANCH   7   8
ENDBRANCH   4   7
BRANCH   1  22
ATOM     22  O   UNL d   1       7.592   4.790 -11.221  0.00  0.00    -0.307 OA
BRANCH  22  23
ATOM     23  C   UNL d   1       8.412   5.747 -10.708  0.00  0.00     0.102 A 
ATOM     24  C   UNL d   1       8.978   6.736 -11.548  0.00  0.00     0.025 A 
ATOM     25  C   UNL d   1       9.853   7.683 -11.022  0.00  0.00    -0.001 A 
ATOM     26  C   UNL d   1      10.168   7.674  -9.649  0.00  0.00    -0.004 A 
ATOM     27  C   UNL d   1      11.067   8.728  -9.060  0.00  0.00     0.038 C 
ATOM     28  C   UNL d   1       9.591   6.702  -8.802  0.00  0.00     0.082 A 
ATOM     29  C   UNL d   1      11.799   8.210  -7.809  0.00  0.00     0.095 C 
ATOM     30  C   UNL d   1      10.872   7.423  -6.868  0.00  0.00     0.256 C 
ATOM     31  O   UNL d   1      11.061   7.443  -5.655  0.00  0.00    -0.270 OA
ATOM     32  N   UNL d   1       9.883   6.705  -7.418  0.00  0.00    -0.212 NA
ATOM     33  C   UNL d   1       8.708   5.739  -9.334  0.00  0.00     0.044 A 
ENDBRANCH  22  23
ENDBRANCH   1  22
TORSDOF 5
