REMARK  2 active torsions:
REMARK  status: ('A' for Active; 'I' for Inactive)
REMARK    1  A    between atoms: C_2  and  N_3 
REMARK    2  A    between atoms: C_7  and  C_8 
ROOT
ATOM      1  C   UNL d   1      10.699   8.749  -8.217  0.00  0.00     0.038 A 
ATOM      2  C   UNL d   1      11.017   9.521  -9.320  0.00  0.00     0.101 A 
ATOM      3  N   UNL d   1      10.748   8.800 -10.480  0.00  0.00    -0.242 NA
ATOM      4  C   UNL d   1      10.159   7.602 -10.184  0.00  0.00     0.109 A 
ATOM      5  C   UNL d   1       9.662   6.585 -11.026  0.00  0.00     0.158 A 
ATOM      6  F   UNL d   1       9.665   6.691 -12.379  0.00  0.00    -0.203 F 
ATOM      7  C   UNL d   1       9.139   5.428 -10.430  0.00  0.00     0.037 A 
ATOM      8  C   UNL d   1       9.044   5.350  -9.039  0.00  0.00     0.033 A 
ATOM      9  I   UNL d   1       8.289   3.582  -8.318  0.00  0.00    -0.043 I 
ATOM     10  C   UNL d   1       9.440   6.418  -8.211  0.00  0.00     0.007 A 
ATOM     11  C   UNL d   1      10.085   7.549  -8.762  0.00  0.00     0.023 A 
ENDROOT
BRANCH   1  12
ATOM     12  C   UNL d   1      10.890   9.114  -6.815  0.00  0.00     0.082 A 
ATOM     13  N   UNL d   1      11.260   8.271  -5.799  0.00  0.00    -0.309 N 
ATOM     14  C   UNL d   1      11.293   9.039  -4.688  0.00  0.00     0.179 A 
ATOM     15  N   UNL d   1      10.959  10.297  -4.853  0.00  0.00    -0.223 NA
ATOM     16  C   UNL d   1      10.760  10.348  -6.225  0.00  0.00     0.118 A 
BRANCH  13  17
ATOM     17  C   UNL d   1      11.579   6.866  -5.900  0.00  0.00     0.108 C 
ATOM     18  C   UNL d   1      12.155   6.353  -4.601  0.00  0.00     0.027 C 
ENDBRANCH  13  17
ENDBRANCH   1  12
TORSDOF 2
