REMARK  7 active torsions:
REMARK  status: ('A' for Active; 'I' for Inactive)
REMARK    1  A    between atoms: C_2  and  C_3 
REMARK       I    between atoms: C_2  and  N_10 
REMARK    2  A    between atoms: C_3  and  C_4 
REMARK    3  A    between atoms: N_10  and  C_11 
REMARK    4  A    between atoms: C_14  and  C_15 
REMARK    5  A    between atoms: C_15  and  C_16 
REMARK    6  A    between atoms: C_16  and  N_17 
REMARK    7  A    between atoms: N_20  and  C_21 
ROOT
ATOM      1  C   UNL d   1       9.594   5.864 -11.586  0.00  0.00     0.035 C 
ENDROOT
BRANCH   1   2
ATOM      2  C   UNL d   1       9.335   6.658 -10.330  0.00  0.00     0.002 C 
ATOM      3  C   UNL d   1       9.818   5.985  -9.034  0.00  0.00     0.002 C 
ATOM      4  C   UNL d   1       9.521   6.870  -7.841  0.00  0.00     0.024 C 
ATOM      5  C   UNL d   1      10.192   8.233  -8.018  0.00  0.00     0.106 C 
ATOM      6  C   UNL d   1       9.665   8.966  -9.266  0.00  0.00     0.024 C 
ATOM      7  C   UNL d   1       9.918   8.089 -10.491  0.00  0.00     0.002 C 
BRANCH   5   8
ATOM      8  N   UNL d   1       9.875   9.031  -6.862  0.00  0.00    -0.240 NA
ATOM      9  C   UNL d   1      10.679   9.383  -5.859  0.00  0.00     0.254 C 
ATOM     10  O   UNL d   1      10.298  10.161  -4.992  0.00  0.00    -0.271 OA
BRANCH   9  11
ATOM     11  C   UNL d   1      12.083   8.832  -5.822  0.00  0.00     0.122 C 
BRANCH  11  12
ATOM     12  C   UNL d   1      12.590   8.441  -4.422  0.00  0.00     0.154 C 
ATOM     13  O   UNL d   1      12.185   9.412  -3.449  0.00  0.00    -0.351 OA
ATOM     14  C   UNL d   1      12.685   9.070  -2.163  0.00  0.00     0.174 C 
ATOM     15  C   UNL d   1      12.258   7.635  -1.796  0.00  0.00     0.174 C 
ATOM     16  O   UNL d   1      12.697   6.690  -2.755  0.00  0.00    -0.349 OA
ATOM     17  C   UNL d   1      12.171   7.006  -4.029  0.00  0.00     0.172 C 
ENDBRANCH  11  12
ENDBRANCH   9  11
ENDBRANCH   5   8
ENDBRANCH   1   2
BRANCH   1  18
ATOM     18  C   UNL d   1       9.272   4.371 -11.513  0.00  0.00     0.250 C 
BRANCH  18  19
ATOM     19  N   UNL d   1       9.514   3.650 -12.760  0.00  0.00     0.141 N 
ATOM     20  C   UNL d   1       8.303   3.639 -13.575  0.00  0.00     0.274 C 
ATOM     21  C   UNL d   1       8.542   2.784 -14.838  0.00  0.00     0.137 C 
ATOM     22  N   UNL d   1       9.713   3.266 -15.550  0.00  0.00    -0.343 N 
ATOM     23  C   UNL d   1      10.935   3.339 -14.775  0.00  0.00     0.137 C 
ATOM     24  C   UNL d   1      10.667   4.161 -13.516  0.00  0.00     0.274 C 
BRANCH  22  25
ATOM     25  C   UNL d   1       9.673   3.647 -16.901  0.00  0.00     0.081 A 
ATOM     26  C   UNL d   1       9.006   2.852 -17.838  0.00  0.00     0.135 A 
ATOM     27  C   UNL d   1       8.968   3.197 -19.182  0.00  0.00     0.121 A 
ATOM     28  O   UNL d   1       8.322   1.694 -17.656  0.00  0.00    -0.298 OA
ATOM     29  C   UNL d   1       9.579   4.362 -19.659  0.00  0.00     0.026 A 
ATOM     30  O   UNL d   1       8.258   2.263 -19.865  0.00  0.00    -0.299 OA
ATOM     31  C   UNL d   1      10.251   5.187 -18.730  0.00  0.00     0.004 A 
ATOM     32  C   UNL d   1      10.298   4.830 -17.355  0.00  0.00     0.019 A 
ATOM     33  C   UNL d   1       7.858   1.303 -18.923  0.00  0.00     0.304 A 
ENDBRANCH  22  25
ENDBRANCH  18  19
ENDBRANCH   1  18
TORSDOF 7
