REMARK  3 active torsions:
REMARK  status: ('A' for Active; 'I' for Inactive)
REMARK    1  A    between atoms: C_2  and  C_3 
REMARK    2  A    between atoms: C_3  and  N_4 
REMARK    3  A    between atoms: C_7  and  C_8 
ROOT
ATOM      1  C   UNL d   1       7.555   0.906 -16.635  0.00  0.00    -0.004 A 
ATOM      2  C   UNL d   1       8.770   0.573 -17.172  0.00  0.00     0.072 A 
ATOM      3  N   UNL d   1       9.794   1.232 -16.518  0.00  0.00    -0.325 N 
ATOM      4  C   UNL d   1      11.194   1.089 -16.866  0.00  0.00     0.131 C 
ATOM      5  C   UNL d   1       9.256   2.020 -15.511  0.00  0.00     0.062 A 
ATOM      6  C   UNL d   1       9.849   2.881 -14.566  0.00  0.00     0.047 A 
ATOM      7  C   UNL d   1       9.038   3.578 -13.651  0.00  0.00     0.142 A 
ATOM      8  F   UNL d   1       9.608   4.410 -12.744  0.00  0.00    -0.204 F 
ATOM      9  C   UNL d   1       7.638   3.407 -13.682  0.00  0.00     0.030 A 
ATOM     10  C   UNL d   1       7.055   2.524 -14.616  0.00  0.00     0.004 A 
ATOM     11  C   UNL d   1       7.840   1.822 -15.562  0.00  0.00     0.013 A 
ENDROOT
BRANCH   1  12
ATOM     12  C   UNL d   1       6.205   0.403 -17.085  0.00  0.00     0.028 C 
ATOM     13  C   UNL d   1       5.823  -0.884 -16.344  0.00  0.00     0.040 C 
ATOM     14  C   UNL d   1       4.513  -1.489 -16.870  0.00  0.00     0.251 C 
ATOM     15  N   UNL d   1       4.626  -1.754 -18.306  0.00  0.00     0.137 N 
ATOM     16  C   UNL d   1       4.824  -0.497 -19.027  0.00  0.00     0.251 C 
ATOM     17  C   UNL d   1       6.152   0.142 -18.605  0.00  0.00     0.040 C 
BRANCH  15  18
ATOM     18  C   UNL d   1       3.402  -2.402 -18.767  0.00  0.00     0.250 C 
BRANCH  18  19
ATOM     19  C   UNL d   1       3.631  -3.201 -20.061  0.00  0.00     0.035 C 
ATOM     20  C   UNL d   1       2.634  -4.364 -20.201  0.00  0.00     0.002 C 
ENDBRANCH  18  19
ENDBRANCH  15  18
ENDBRANCH   1  12
TORSDOF 3
