REMARK  9 active torsions:
REMARK  status: ('A' for Active; 'I' for Inactive)
REMARK    1  A    between atoms: C_2  and  C_3 
REMARK    2  A    between atoms: C_3  and  C_4 
REMARK    3  A    between atoms: C_4  and  C_5 
REMARK    4  A    between atoms: C_5  and  C_6 
REMARK    5  A    between atoms: C_6  and  C_7 
REMARK    6  A    between atoms: C_7  and  C_8 
REMARK    7  A    between atoms: C_8  and  C_9 
REMARK    8  A    between atoms: C_9  and  C_10 
REMARK       I    between atoms: C_10  and  N_12 
REMARK    9  A    between atoms: C_21  and  N_22 
ROOT
ATOM      1  C   UNL d   1      10.180   4.043 -14.832  0.00  0.00     0.241 C 
ATOM      2  O   UNL d   1      10.630   5.104 -14.377  0.00  0.00    -0.272 OA
ATOM      3  N   UNL d   1      10.646   3.485 -15.977  0.00  0.00    -0.277 N 
ATOM      4  C   UNL d   1      10.148   2.294 -16.565  0.00  0.00     0.084 A 
ATOM      5  C   UNL d   1      10.433   1.063 -15.934  0.00  0.00     0.020 A 
ATOM      6  C   UNL d   1      10.006  -0.146 -16.511  0.00  0.00     0.013 A 
ATOM      7  C   UNL d   1       9.296  -0.123 -17.728  0.00  0.00     0.059 A 
ATOM      8 CL   UNL d   1       8.781  -1.606 -18.448  0.00  0.00    -0.082 Cl
ATOM      9  C   UNL d   1       9.010   1.102 -18.360  0.00  0.00     0.032 A 
ATOM     10  C   UNL d   1       9.442   2.324 -17.799  0.00  0.00     0.100 A 
ATOM     11  N   UNL d   1       9.063   3.497 -18.470  0.00  0.00    -0.227 NA
ATOM     12  C   UNL d   1       9.841   4.533 -18.616  0.00  0.00     0.141 C 
ATOM     13  C   UNL d   1      11.262   4.565 -18.100  0.00  0.00     0.050 A 
ATOM     14  C   UNL d   1      12.268   5.143 -18.908  0.00  0.00     0.004 A 
ATOM     15  C   UNL d   1      13.574   5.327 -18.416  0.00  0.00     0.000 A 
ATOM     16  C   UNL d   1      13.905   4.902 -17.120  0.00  0.00     0.002 A 
ATOM     17  C   UNL d   1      12.927   4.291 -16.317  0.00  0.00     0.018 A 
ATOM     18  C   UNL d   1      11.607   4.122 -16.799  0.00  0.00     0.070 A 
ENDROOT
BRANCH   1  19
ATOM     19  C   UNL d   1       9.035   3.345 -14.073  0.00  0.00     0.089 C 
BRANCH  19  20
ATOM     20  C   UNL d   1       8.423   4.174 -12.931  0.00  0.00     0.010 C 
BRANCH  20  21
ATOM     21  C   UNL d   1       9.405   4.505 -11.793  0.00  0.00     0.001 C 
BRANCH  21  22
ATOM     22  C   UNL d   1       8.781   5.372 -10.694  0.00  0.00     0.000 C 
BRANCH  22  23
ATOM     23  C   UNL d   1       9.792   5.688  -9.586  0.00  0.00     0.000 C 
BRANCH  23  24
ATOM     24  C   UNL d   1       9.266   6.731  -8.596  0.00  0.00     0.000 C 
BRANCH  24  25
ATOM     25  C   UNL d   1      10.250   7.015  -7.449  0.00  0.00     0.000 C 
BRANCH  25  26
ATOM     26  C   UNL d   1       9.788   8.166  -6.547  0.00  0.00     0.000 C 
ATOM     27  C   UNL d   1      10.819   8.508  -5.465  0.00  0.00     0.000 C 
ENDBRANCH  25  26
ENDBRANCH  24  25
ENDBRANCH  23  24
ENDBRANCH  22  23
ENDBRANCH  21  22
ENDBRANCH  20  21
ENDBRANCH  19  20
ENDBRANCH   1  19
BRANCH  12  28
ATOM     28  N   UNL d   1       9.419   5.700 -19.236  0.00  0.00    -0.330 N 
ATOM     29  C   UNL d   1       8.515   5.726 -20.388  0.00  0.00     0.138 C 
ATOM     30  C   UNL d   1       9.133   6.564 -21.525  0.00  0.00     0.274 C 
ATOM     31  N   UNL d   1       9.404   7.921 -21.053  0.00  0.00     0.143 N 
ATOM     32  C   UNL d   1      10.365   7.873 -19.957  0.00  0.00     0.274 C 
ATOM     33  C   UNL d   1       9.984   8.707 -22.146  0.00  0.00     0.286 C 
ATOM     34  C   UNL d   1       9.771   7.054 -18.795  0.00  0.00     0.138 C 
ENDBRANCH  12  28
TORSDOF 9
