REMARK  4 active torsions:
REMARK  status: ('A' for Active; 'I' for Inactive)
REMARK    1  A    between atoms: C_2  and  C_3 
REMARK    2  A    between atoms: C_3  and  N_4 
REMARK    3  A    between atoms: C_7  and  C_8 
REMARK    4  A    between atoms: C_13  and  O_14 
ROOT
ATOM      1  N   UNL d   1       9.908   7.438  -8.884  0.00  0.00     0.137 N 
ATOM      2  C   UNL d   1       9.839   6.011  -8.563  0.00  0.00     0.251 C 
ATOM      3  C   UNL d   1       8.873   5.289  -9.518  0.00  0.00     0.040 C 
ATOM      4  C   UNL d   1       9.279   5.484 -10.997  0.00  0.00     0.028 C 
ATOM      5  C   UNL d   1       9.459   6.981 -11.275  0.00  0.00     0.040 C 
ATOM      6  C   UNL d   1      10.404   7.635 -10.247  0.00  0.00     0.251 C 
ENDROOT
BRANCH   4   7
ATOM      7  C   UNL d   1       8.290   4.848 -11.977  0.00  0.00    -0.000 A 
ATOM      8  C   UNL d   1       8.715   3.991 -13.027  0.00  0.00     0.090 A 
ATOM      9  C   UNL d   1       7.734   3.415 -13.880  0.00  0.00     0.024 A 
ATOM     10  C   UNL d   1       6.364   3.675 -13.683  0.00  0.00     0.002 A 
ATOM     11  C   UNL d   1       5.965   4.545 -12.662  0.00  0.00    -0.000 A 
ATOM     12  C   UNL d   1       6.920   5.148 -11.832  0.00  0.00    -0.002 A 
BRANCH   8  13
ATOM     13  O   UNL d   1      10.071   3.759 -13.173  0.00  0.00    -0.328 OA
ATOM     14  C   UNL d   1      10.487   2.836 -14.171  0.00  0.00     0.181 C 
ENDBRANCH   8  13
ENDBRANCH   4   7
BRANCH   1  15
ATOM     15  C   UNL d   1      10.770   8.132  -7.931  0.00  0.00     0.250 C 
BRANCH  15  16
ATOM     16  C   UNL d   1       9.970   8.607  -6.709  0.00  0.00     0.035 C 
ATOM     17  C   UNL d   1      10.821   9.502  -5.796  0.00  0.00     0.002 C 
ENDBRANCH  15  16
ENDBRANCH   1  15
TORSDOF 4
