REMARK  3 active torsions:
REMARK  status: ('A' for Active; 'I' for Inactive)
REMARK    1  A    between atoms: C_2  and  C_3 
REMARK    2  A    between atoms: C_2  and  C_6 
REMARK    3  A    between atoms: C_9  and  C_10 
ROOT
ATOM      1  C   UNL d   1       9.817   6.533  -9.865  0.00  0.00    -0.010 A 
ATOM      2  C   UNL d   1       9.196   6.027  -8.699  0.00  0.00    -0.004 A 
ATOM      3  C   UNL d   1       9.614   6.458  -7.425  0.00  0.00     0.002 A 
ATOM      4  C   UNL d   1      10.656   7.392  -7.283  0.00  0.00     0.028 A 
ATOM      5  C   UNL d   1      11.286   7.893  -8.434  0.00  0.00     0.140 A 
ATOM      6  F   UNL d   1      12.299   8.786  -8.327  0.00  0.00    -0.204 F 
ATOM      7  C   UNL d   1      10.888   7.449  -9.711  0.00  0.00     0.026 A 
ENDROOT
BRANCH   4   8
ATOM      8  C   UNL d   1      11.061   7.825  -5.946  0.00  0.00     0.002 A 
ATOM      9  C   UNL d   1      11.069   9.190  -5.598  0.00  0.00     0.000 A 
ATOM     10  C   UNL d   1      11.447   9.593  -4.303  0.00  0.00     0.000 A 
ATOM     11  C   UNL d   1      11.862   8.633  -3.358  0.00  0.00     0.000 A 
ATOM     12  C   UNL d   1      11.860   7.267  -3.700  0.00  0.00     0.000 A 
ATOM     13  C   UNL d   1      11.457   6.871  -4.983  0.00  0.00     0.000 A 
ENDBRANCH   4   8
BRANCH   1  14
ATOM     14  C   UNL d   1       9.362   6.078 -11.273  0.00  0.00     0.110 C 
ATOM     15  C   UNL d   1       8.495   4.799 -11.278  0.00  0.00     0.016 C 
BRANCH  14  16
ATOM     16  C   UNL d   1       8.654   7.193 -12.061  0.00  0.00     0.189 C 
ATOM     17  O   UNL d   1       7.559   7.052 -12.620  0.00  0.00    -0.647 OA
ATOM     18  O   UNL d   1       9.416   8.318 -12.159  0.00  0.00    -0.647 OA
ENDBRANCH  14  16
ENDBRANCH   1  14
TORSDOF 3
