REMARK  10 active torsions:
REMARK  status: ('A' for Active; 'I' for Inactive)
REMARK    1  A    between atoms: O_2  and  C_3 
REMARK    2  A    between atoms: C_3  and  C_4 
REMARK    3  A    between atoms: C_4  and  O_5 
REMARK    4  A    between atoms: O_5  and  C_6 
REMARK    5  A    between atoms: C_6  and  C_8 
REMARK    6  A    between atoms: C_14  and  C_15 
REMARK    7  A    between atoms: C_15  and  O_17 
REMARK    8  A    between atoms: O_17  and  C_18 
REMARK    9  A    between atoms: C_21  and  C_22 
REMARK   10  A    between atoms: C_26  and  N_27 
ROOT
ATOM      1  C   UNL d   1       8.731   1.433 -15.424  0.00  0.00     0.062 A 
ATOM      2  C   UNL d   1       7.377   1.417 -15.305  0.00  0.00     0.061 A 
ATOM      3  C   UNL d   1       6.403   0.405 -15.894  0.00  0.00     0.052 C 
ATOM      4  N   UNL d   1       6.729   2.369 -14.544  0.00  0.00    -0.254 NA
ATOM      5  C   UNL d   1       7.392   3.325 -13.790  0.00  0.00     0.061 A 
ATOM      6  C   UNL d   1       6.395   4.135 -12.973  0.00  0.00     0.052 C 
ATOM      7  C   UNL d   1       8.749   3.461 -13.859  0.00  0.00     0.062 A 
ATOM      8  C   UNL d   1       9.593   2.530 -14.764  0.00  0.00     0.080 A 
ENDROOT
BRANCH   8   9
ATOM      9  C   UNL d   1      10.458   3.275 -15.796  0.00  0.00    -0.012 A 
ATOM     10  C   UNL d   1       9.873   3.779 -16.973  0.00  0.00     0.020 A 
ATOM     11  C   UNL d   1      10.638   4.517 -17.903  0.00  0.00     0.126 A 
ATOM     12  C   UNL d   1      12.002   4.765 -17.634  0.00  0.00     0.024 A 
ATOM     13  C   UNL d   1      12.599   4.261 -16.464  0.00  0.00     0.001 A 
ATOM     14  C   UNL d   1      11.835   3.500 -15.559  0.00  0.00    -0.004 A 
BRANCH  11  15
ATOM     15  N   UNL d   1      10.019   5.013 -19.142  0.00  0.00    -0.114 N 
ATOM     16  O   UNL d   1       8.947   4.527 -19.482  0.00  0.00    -0.532 OA
ATOM     17  O   UNL d   1      10.613   5.874 -19.785  0.00  0.00    -0.532 OA
ENDBRANCH  11  15
ENDBRANCH   8   9
BRANCH   1  18
ATOM     18  C   UNL d   1       9.494   0.401 -16.176  0.00  0.00     0.294 C 
ATOM     19  O   UNL d   1      10.623   0.041 -15.839  0.00  0.00    -0.259 OA
BRANCH  18  20
ATOM     20  O   UNL d   1       8.824  -0.086 -17.239  0.00  0.00    -0.296 OA
BRANCH  20  21
ATOM     21  C   UNL d   1       9.281  -1.205 -18.001  0.00  0.00     0.184 C 
BRANCH  21  22
ATOM     22  C   UNL d   1      10.282  -0.769 -19.064  0.00  0.00     0.175 C 
BRANCH  22  23
ATOM     23  O   UNL d   1      11.566  -0.806 -18.477  0.00  0.00    -0.349 OA
ATOM     24  C   UNL d   1      12.586  -0.386 -19.356  0.00  0.00     0.174 C 
ENDBRANCH  22  23
ENDBRANCH  21  22
ENDBRANCH  20  21
ENDBRANCH  18  20
ENDBRANCH   1  18
BRANCH   7  25
ATOM     25  C   UNL d   1       9.532   4.438 -13.024  0.00  0.00     0.293 C 
ATOM     26  O   UNL d   1      10.686   4.789 -13.267  0.00  0.00    -0.259 OA
BRANCH  25  27
ATOM     27  O   UNL d   1       8.824   4.913 -11.985  0.00  0.00    -0.301 OA
BRANCH  27  28
ATOM     28  C   UNL d   1       9.295   6.023 -11.180  0.00  0.00     0.125 C 
ATOM     29  C   UNL d   1       8.575   5.869  -9.831  0.00  0.00     0.033 C 
ATOM     30  C   UNL d   1       8.946   7.350 -11.868  0.00  0.00     0.033 C 
ENDBRANCH  27  28
ENDBRANCH  25  27
ENDBRANCH   7  25
TORSDOF 10
