REMARK  4 active torsions:
REMARK  status: ('A' for Active; 'I' for Inactive)
REMARK    1  A    between atoms: C_8  and  N_9 
REMARK    2  A    between atoms: N_9  and  C_10 
REMARK    3  A    between atoms: N_17  and  C_18 
REMARK    4  A    between atoms: C_18  and  C_19 
ROOT
ATOM      1 CL   UNL d   1      12.982   6.755 -18.088  0.00  0.00    -0.082 Cl
ATOM      2  C   UNL d   1      12.466   5.167 -17.648  0.00  0.00     0.058 A 
ATOM      3  C   UNL d   1      13.217   4.043 -18.034  0.00  0.00     0.013 A 
ATOM      4  C   UNL d   1      12.778   2.753 -17.681  0.00  0.00     0.020 A 
ATOM      5  C   UNL d   1      11.594   2.575 -16.939  0.00  0.00     0.086 A 
ATOM      6  C   UNL d   1      10.849   3.704 -16.518  0.00  0.00     0.054 A 
ATOM      7  C   UNL d   1      11.292   4.996 -16.896  0.00  0.00     0.016 A 
ATOM      8  C   UNL d   1       9.643   3.607 -15.634  0.00  0.00     0.160 C 
ATOM      9  N   UNL d   1       8.727   2.695 -15.713  0.00  0.00    -0.224 NA
ATOM     10  C   UNL d   1       8.733   1.584 -16.558  0.00  0.00     0.119 A 
ATOM     11  C   UNL d   1       7.472   1.073 -16.925  0.00  0.00     0.024 A 
ATOM     12  C   UNL d   1       7.391  -0.101 -17.692  0.00  0.00     0.022 A 
ATOM     13  C   UNL d   1       8.587  -0.751 -18.040  0.00  0.00     0.101 A 
ATOM     14  N   UNL d   1       9.805  -0.295 -17.677  0.00  0.00    -0.224 NA
ATOM     15  C   UNL d   1       9.877   0.850 -16.967  0.00  0.00     0.180 A 
ATOM     16  N   UNL d   1      11.175   1.267 -16.694  0.00  0.00    -0.225 NA
ENDROOT
BRANCH   8  17
ATOM     17  N   UNL d   1       9.595   4.606 -14.671  0.00  0.00    -0.255 NA
BRANCH  17  18
ATOM     18  C   UNL d   1       8.478   4.873 -13.781  0.00  0.00     0.109 C 
ATOM     19  C   UNL d   1       8.185   3.703 -12.838  0.00  0.00     0.058 C 
ATOM     20  C   UNL d   1       7.240   4.106 -11.677  0.00  0.00     0.222 C 
ATOM     21  C   UNL d   1       5.937   4.735 -12.184  0.00  0.00     0.035 C 
ATOM     22  N   UNL d   1       7.837   5.174 -10.887  0.00  0.00     0.138 N 
ATOM     23  C   UNL d   1       6.263   6.228 -12.246  0.00  0.00     0.035 C 
ATOM     24  C   UNL d   1       7.738   6.298 -11.799  0.00  0.00     0.222 C 
ATOM     25  C   UNL d   1       8.714   6.150 -12.963  0.00  0.00     0.058 C 
BRANCH  22  26
ATOM     26  C   UNL d   1       9.138   4.945 -10.259  0.00  0.00     0.277 C 
BRANCH  26  27
ATOM     27  C   UNL d   1       9.558   6.051  -9.308  0.00  0.00     0.011 A 
ATOM     28  C   UNL d   1       9.059   6.083  -7.991  0.00  0.00    -0.002 A 
ATOM     29  C   UNL d   1       9.458   7.103  -7.101  0.00  0.00    -0.000 A 
ATOM     30  C   UNL d   1      10.352   8.105  -7.529  0.00  0.00    -0.000 A 
ATOM     31  C   UNL d   1      10.847   8.083  -8.848  0.00  0.00    -0.000 A 
ATOM     32  C   UNL d   1      10.447   7.061  -9.732  0.00  0.00    -0.002 A 
ENDBRANCH  26  27
ENDBRANCH  22  26
ENDBRANCH  17  18
ENDBRANCH   8  17
TORSDOF 4
