REMARK  2 active torsions:
REMARK  status: ('A' for Active; 'I' for Inactive)
REMARK    1  A    between atoms: C_2  and  C_4 
REMARK    2  A    between atoms: C_4  and  C_5 
ROOT
ATOM      1  C   UNL d   1      11.248   8.062  -6.222  0.00  0.00     0.001 A 
ATOM      2  C   UNL d   1      11.178   9.413  -6.447  0.00  0.00     0.095 A 
ATOM      3  N   UNL d   1      11.442  10.083  -5.268  0.00  0.00    -0.244 NA
ATOM      4  C   UNL d   1      11.707   9.190  -4.253  0.00  0.00     0.081 A 
ATOM      5  C   UNL d   1      12.035   9.367  -2.900  0.00  0.00     0.019 A 
ATOM      6  C   UNL d   1      12.264   8.243  -2.089  0.00  0.00     0.002 A 
ATOM      7  C   UNL d   1      12.146   6.950  -2.635  0.00  0.00     0.000 A 
ATOM      8  C   UNL d   1      11.813   6.787  -3.994  0.00  0.00     0.001 A 
ATOM      9  C   UNL d   1      11.582   7.897  -4.835  0.00  0.00     0.015 A 
ENDROOT
BRANCH   1  10
ATOM     10  C   UNL d   1      11.010   6.987  -7.239  0.00  0.00     0.067 C 
BRANCH  10  11
ATOM     11  C   UNL d   1       9.542   6.520  -7.294  0.00  0.00     0.306 C 
ATOM     12  C   UNL d   1       9.275   5.597  -8.491  0.00  0.00     0.042 C 
ATOM     13  N   UNL d   1       8.663   7.669  -7.394  0.00  0.00     0.616 N 
ENDBRANCH  10  11
ENDBRANCH   1  10
TORSDOF 2
