REMARK  6 active torsions:
REMARK  status: ('A' for Active; 'I' for Inactive)
REMARK       I    between atoms: C_2  and  N_3 
REMARK    1  A    between atoms: C_2  and  C_27 
REMARK    2  A    between atoms: N_3  and  C_4 
REMARK    3  A    between atoms: C_7  and  C_8 
REMARK    4  A    between atoms: C_8  and  C_9 
REMARK    5  A    between atoms: C_9  and  N_10 
REMARK    6  A    between atoms: C_13  and  C_14 
ROOT
ATOM      1  C   UNL d   1       8.732   2.897 -15.391  0.00  0.00     0.107 C 
ATOM      2  C   UNL d   1       7.566   2.918 -14.380  0.00  0.00     0.024 C 
ATOM      3  C   UNL d   1       7.684   4.106 -13.423  0.00  0.00     0.002 C 
ATOM      4  C   UNL d   1       9.053   4.123 -12.721  0.00  0.00     0.002 C 
ATOM      5  C   UNL d   1      10.204   4.071 -13.742  0.00  0.00     0.002 C 
ATOM      6  C   UNL d   1      10.090   2.875 -14.684  0.00  0.00     0.024 C 
ENDROOT
BRANCH   4   7
ATOM      7  C   UNL d   1       9.182   5.367 -11.832  0.00  0.00     0.035 C 
BRANCH   7   8
ATOM      8  C   UNL d   1       8.556   5.200 -10.435  0.00  0.00     0.250 C 
BRANCH   8   9
ATOM      9  N   UNL d   1       9.049   6.153  -9.443  0.00  0.00     0.137 N 
ATOM     10  C   UNL d   1       8.552   5.733  -8.124  0.00  0.00     0.251 C 
ATOM     11  C   UNL d   1       8.939   6.762  -7.046  0.00  0.00     0.040 C 
ATOM     12  C   UNL d   1      10.460   6.961  -6.994  0.00  0.00     0.028 C 
ATOM     13  C   UNL d   1      10.973   7.274  -8.395  0.00  0.00     0.040 C 
ATOM     14  C   UNL d   1      10.500   6.231  -9.388  0.00  0.00     0.251 C 
BRANCH  12  15
ATOM     15  C   UNL d   1      10.853   8.043  -6.046  0.00  0.00     0.004 A 
ATOM     16  C   UNL d   1      11.455   7.895  -4.759  0.00  0.00     0.021 A 
ATOM     17  C   UNL d   1      11.609   9.204  -4.246  0.00  0.00     0.100 A 
ATOM     18  C   UNL d   1      11.861   6.824  -3.935  0.00  0.00     0.002 A 
ATOM     19  O   UNL d   1      11.135  10.122  -5.162  0.00  0.00    -0.305 OA
ATOM     20  C   UNL d   1      12.145   9.467  -2.986  0.00  0.00     0.025 A 
ATOM     21  C   UNL d   1      10.704   9.400  -6.235  0.00  0.00     0.118 A 
ATOM     22  C   UNL d   1      12.552   8.387  -2.183  0.00  0.00     0.002 A 
ATOM     23  C   UNL d   1      12.398   7.065  -2.651  0.00  0.00     0.000 A 
ENDBRANCH  12  15
ENDBRANCH   8   9
ENDBRANCH   7   8
ENDBRANCH   4   7
BRANCH   1  24
ATOM     24  N   UNL d   1       8.599   1.728 -16.242  0.00  0.00    -0.236 NA
ATOM     25  C   UNL d   1       8.305   1.743 -17.551  0.00  0.00     0.276 C 
ATOM     26  O   UNL d   1       8.259   2.764 -18.233  0.00  0.00    -0.266 OA
BRANCH  25  27
ATOM     27  C   UNL d   1       7.938   0.416 -18.141  0.00  0.00     0.068 A 
ATOM     28  C   UNL d   1       8.770  -0.721 -18.006  0.00  0.00     0.063 A 
ATOM     29  C   UNL d   1       8.400  -1.948 -18.572  0.00  0.00     0.023 A 
ATOM     30 CL   UNL d   1      10.262  -0.675 -17.146  0.00  0.00    -0.082 Cl
ATOM     31  C   UNL d   1       7.206  -2.058 -19.301  0.00  0.00     0.059 A 
ATOM     32  C   UNL d   1       6.367  -0.938 -19.448  0.00  0.00     0.012 A 
ATOM     33 CL   UNL d   1       6.783  -3.568 -20.017  0.00  0.00    -0.082 Cl
ATOM     34  C   UNL d   1       6.733   0.294 -18.871  0.00  0.00     0.006 A 
ENDBRANCH  25  27
ENDBRANCH   1  24
TORSDOF 6
