REMARK  8 active torsions:
REMARK  status: ('A' for Active; 'I' for Inactive)
REMARK    1  A    between atoms: C_2  and  C_3 
REMARK    2  A    between atoms: C_3  and  C_4 
REMARK    3  A    between atoms: C_4  and  C_5 
REMARK    4  A    between atoms: C_5  and  C_6 
REMARK    5  A    between atoms: C_6  and  O_7 
REMARK    6  A    between atoms: O_7  and  C_8 
REMARK    7  A    between atoms: C_13  and  O_14 
REMARK    8  A    between atoms: C_22  and  O_23 
ROOT
ATOM      1  C   UNL d   1      10.383   7.639  -8.184  0.00  0.00     0.116 A 
ATOM      2  C   UNL d   1      10.051   6.372  -7.665  0.00  0.00     0.026 A 
ATOM      3  C   UNL d   1       9.390   5.429  -8.470  0.00  0.00    -0.002 A 
ATOM      4  C   UNL d   1       9.082   5.726  -9.814  0.00  0.00    -0.020 A 
ATOM      5  C   UNL d   1       9.460   6.958 -10.369  0.00  0.00     0.031 A 
ATOM      6  C   UNL d   1      10.111   7.907  -9.549  0.00  0.00     0.114 A 
ATOM      7  C   UNL d   1       9.003   7.314 -11.787  0.00  0.00     0.279 C 
ATOM      8  N   UNL d   1       8.670   6.186 -12.660  0.00  0.00     0.144 N 
ATOM      9  C   UNL d   1       9.850   5.492 -13.159  0.00  0.00     0.256 C 
ATOM     10  C   UNL d   1       9.478   4.536 -14.285  0.00  0.00     0.061 C 
ATOM     11  C   UNL d   1       8.251   3.704 -13.985  0.00  0.00    -0.020 A 
ATOM     12  C   UNL d   1       7.950   2.582 -14.779  0.00  0.00     0.022 A 
ATOM     13  C   UNL d   1       6.822   1.812 -14.525  0.00  0.00     0.119 A 
ATOM     14  C   UNL d   1       5.938   2.210 -13.480  0.00  0.00     0.153 A 
ATOM     15  O   UNL d   1       4.854   1.448 -13.220  0.00  0.00    -0.188 OA
ATOM     16  C   UNL d   1       6.213   3.351 -12.700  0.00  0.00     0.027 A 
ATOM     17  C   UNL d   1       7.380   4.097 -12.928  0.00  0.00     0.007 A 
ATOM     18  C   UNL d   1       7.748   5.258 -12.000  0.00  0.00     0.246 C 
ATOM     19  C   UNL d   1       8.362   4.715 -10.678  0.00  0.00     0.064 C 
ENDROOT
BRANCH   1  20
ATOM     20  O   UNL d   1      10.913   8.671  -7.437  0.00  0.00    -0.329 OA
BRANCH  20  21
ATOM     21  C   UNL d   1      11.288   8.415  -6.100  0.00  0.00     0.149 C 
BRANCH  21  22
ATOM     22  C   UNL d   1      12.157   9.586  -5.613  0.00  0.00     0.033 C 
BRANCH  22  23
ATOM     23  C   UNL d   1      12.860   9.271  -4.291  0.00  0.00     0.003 C 
BRANCH  23  24
ATOM     24  C   UNL d   1      11.913   9.238  -3.088  0.00  0.00     0.000 C 
BRANCH  24  25
ATOM     25  C   UNL d   1      12.470   8.452  -1.894  0.00  0.00     0.000 C 
ATOM     26  C   UNL d   1      12.448   6.927  -2.109  0.00  0.00     0.000 C 
ENDBRANCH  24  25
ENDBRANCH  23  24
ENDBRANCH  22  23
ENDBRANCH  21  22
ENDBRANCH  20  21
ENDBRANCH   1  20
BRANCH   6  27
ATOM     27  O   UNL d   1      10.384   9.160 -10.042  0.00  0.00    -0.326 OA
ATOM     28  C   UNL d   1      11.760   9.419 -10.165  0.00  0.00     0.181 C 
ENDBRANCH   6  27
BRANCH  13  29
ATOM     29  O   UNL d   1       6.575   0.748 -15.353  0.00  0.00    -0.326 OA
ATOM     30  C   UNL d   1       6.537  -0.527 -14.725  0.00  0.00     0.181 C 
ENDBRANCH  13  29
TORSDOF 8
