REMARK  4 active torsions:
REMARK  status: ('A' for Active; 'I' for Inactive)
REMARK    1  A    between atoms: C_6  and  C_7 
REMARK    2  A    between atoms: C_7  and  C_8 
REMARK    3  A    between atoms: C_8  and  C_9 
REMARK    4  A    between atoms: C_9  and  N_10 
ROOT
ATOM      1  C   UNL d   1       6.950   5.771 -12.264  0.00  0.00     0.029 C 
ENDROOT
BRANCH   1   2
ATOM      2  C   UNL d   1       6.709   4.382 -12.849  0.00  0.00    -0.020 A 
ATOM      3  C   UNL d   1       5.689   3.560 -12.320  0.00  0.00    -0.004 A 
ATOM      4  C   UNL d   1       5.459   2.272 -12.848  0.00  0.00     0.002 A 
ATOM      5  C   UNL d   1       6.246   1.788 -13.915  0.00  0.00     0.030 A 
ATOM      6  C   UNL d   1       7.259   2.603 -14.448  0.00  0.00     0.140 A 
ATOM      7  F   UNL d   1       8.010   2.154 -15.482  0.00  0.00    -0.204 F 
ATOM      8  C   UNL d   1       7.484   3.893 -13.925  0.00  0.00     0.025 A 
ENDBRANCH   1   2
BRANCH   1   9
ATOM      9  C   UNL d   1       8.438   6.169 -12.194  0.00  0.00     0.040 C 
BRANCH   9  10
ATOM     10  C   UNL d   1       9.196   5.376 -11.114  0.00  0.00     0.251 C 
BRANCH  10  11
ATOM     11  N   UNL d   1       9.040   5.986  -9.794  0.00  0.00     0.137 N 
ATOM     12  C   UNL d   1       9.677   7.290  -9.693  0.00  0.00     0.250 C 
ATOM     13  C   UNL d   1       9.695   7.564  -8.198  0.00  0.00     0.037 C 
ATOM     14  C   UNL d   1       9.674   6.178  -7.554  0.00  0.00     0.037 C 
ATOM     15  C   UNL d   1       9.642   5.202  -8.729  0.00  0.00     0.250 C 
ENDBRANCH  10  11
ENDBRANCH   9  10
ENDBRANCH   1   9
TORSDOF 4
