REMARK  8 active torsions:
REMARK  status: ('A' for Active; 'I' for Inactive)
REMARK    1  A    between atoms: N_12  and  C_13 
REMARK    2  A    between atoms: C_13  and  C_14 
REMARK    3  A    between atoms: C_14  and  C_15 
REMARK    4  A    between atoms: C_15  and  C_16 
REMARK    5  A    between atoms: C_16  and  C_17 
REMARK    6  A    between atoms: C_17  and  C_18 
REMARK    7  A    between atoms: C_18  and  N_19 
REMARK    8  A    between atoms: N_22  and  C_23 
ROOT
ATOM      1  C   UNL d   1       7.893   5.338 -10.917  0.00  0.00     0.035 C 
ENDROOT
BRANCH   1   2
ATOM      2  C   UNL d   1       7.768   4.691 -12.300  0.00  0.00     0.002 C 
BRANCH   2   3
ATOM      3  C   UNL d   1       6.520   3.795 -12.388  0.00  0.00     0.002 C 
BRANCH   3   4
ATOM      4  C   UNL d   1       6.639   2.786 -13.533  0.00  0.00     0.025 C 
BRANCH   4   5
ATOM      5  C   UNL d   1       5.824   1.499 -13.329  0.00  0.00     0.122 C 
BRANCH   5   6
ATOM      6  N   UNL d   1       5.839   0.659 -14.543  0.00  0.00    -0.221 N 
ATOM      7  C   UNL d   1       4.802  -0.236 -14.840  0.00  0.00     0.271 A 
ATOM      8  O   UNL d   1       3.811  -0.444 -14.138  0.00  0.00    -0.266 OA
ATOM      9  C   UNL d   1       5.070  -0.845 -16.179  0.00  0.00     0.069 A 
ATOM     10  C   UNL d   1       6.293  -0.480 -16.741  0.00  0.00     0.108 A 
ATOM     11  C   UNL d   1       4.204  -1.693 -16.890  0.00  0.00     0.005 A 
ATOM     12  C   UNL d   1       6.708  -0.891 -18.012  0.00  0.00     0.013 A 
ATOM     13  S   UNL d   1       7.129   0.650 -15.708  0.00  0.00     0.270 S 
ATOM     14  C   UNL d   1       5.855  -1.760 -18.722  0.00  0.00     0.001 A 
ATOM     15  C   UNL d   1       4.617  -2.163 -18.160  0.00  0.00     0.000 A 
ATOM     16  O   UNL d   1       8.322   0.029 -15.120  0.00  0.00    -0.200 OA
ATOM     17  O   UNL d   1       7.183   1.940 -16.417  0.00  0.00    -0.200 OA
ENDBRANCH   5   6
ENDBRANCH   4   5
ENDBRANCH   3   4
ENDBRANCH   2   3
ENDBRANCH   1   2
BRANCH   1  18
ATOM     18  C   UNL d   1       9.181   6.155 -10.750  0.00  0.00     0.250 C 
BRANCH  18  19
ATOM     19  N   UNL d   1       9.700   6.090  -9.376  0.00  0.00     0.141 N 
ATOM     20  C   UNL d   1      10.924   6.875  -9.317  0.00  0.00     0.274 C 
ATOM     21  C   UNL d   1      11.509   6.790  -7.890  0.00  0.00     0.138 C 
ATOM     22  N   UNL d   1      10.555   7.216  -6.894  0.00  0.00    -0.329 N 
ATOM     23  C   UNL d   1       9.239   6.636  -7.009  0.00  0.00     0.138 C 
ATOM     24  C   UNL d   1       8.768   6.713  -8.448  0.00  0.00     0.274 C 
BRANCH  22  25
ATOM     25  C   UNL d   1      10.876   8.202  -5.984  0.00  0.00     0.148 A 
ATOM     26  C   UNL d   1      11.461   7.913  -4.689  0.00  0.00     0.042 A 
ATOM     27  C   UNL d   1      11.638   9.128  -3.980  0.00  0.00     0.050 A 
ATOM     28  C   UNL d   1      11.828   6.735  -4.018  0.00  0.00     0.004 A 
ATOM     29  S   UNL d   1      11.061  10.392  -5.018  0.00  0.00     0.015 SA
ATOM     30  C   UNL d   1      12.154   9.189  -2.679  0.00  0.00     0.008 A 
ATOM     31  N   UNL d   1      10.674   9.438  -6.310  0.00  0.00    -0.192 NA
ATOM     32  C   UNL d   1      12.508   7.993  -2.036  0.00  0.00     0.001 A 
ATOM     33  C   UNL d   1      12.340   6.762  -2.705  0.00  0.00     0.000 A 
ENDBRANCH  22  25
ENDBRANCH  18  19
ENDBRANCH   1  18
TORSDOF 8
